@<TRIPOS>MOLECULE
NIL
642 693 45 0 0
POLYMER
CHARGES


@<TRIPOS>ATOM
1 C_2378 -1.40659 -5.43044 -18.0483 C.2 1 NIL_1    0.000
2 C_2349 -2.894 -5.333 -17.971 C.2 1 NIL_1    0.000
3 C_3627 -0.563 -4.801 -17.213 C.2 1 NIL_1    0.000
4 C_3635 -0.743 -6.089 -19.009 C.2 1 NIL_1    0.000
5 O -3.596 -5.843 -18.821 O.2 1 NIL_1    0.000
6 C_3629 0.789 -4.828 -17.329 C.2 1 NIL_1    0.000
7 C_3633 0.608 -6.112 -19.122 C.2 1 NIL_1    0.000
8 C_3631 1.459 -5.480 -18.295 C.2 1 NIL_1    0.000
9 C_3643 3.076 -5.516 -18.467 C.3 1 NIL_1    0.000
10 NH 3.940 -4.468 -17.663 N.am 1 NIL_1    0.000
11 C_2832 4.200 -3.087 -17.837 C.2 1 NIL_1    0.000
12 C_2827 5.258 -2.279 -16.915 C.3 1 NIL_1    0.000
13 O 3.614 -2.496 -18.720 O.2 1 NIL_1    0.000
14 N 5.454 -0.737 -17.008 N.am 1 NIL_1    0.000
15 C_2828 4.964 -2.557 -15.389 C.3 1 NIL_1    0.000
16 C_2830 5.041 -0.221 -15.642 C.3 1 NIL_1    0.000
17 C_2829 5.249 -1.298 -14.497 C.3 1 NIL_1    0.000
18 N 6.640 -1.281 -13.979 N.am 1 NIL_1    0.000
19 C_2841 4.285 -1.260 -13.251 C.2 1 NIL_1    0.000
20 C_3522 7.598 -1.779 -14.962 C.3 1 NIL_1    0.000
21 O 3.110 -1.537 -13.382 O.2 1 NIL_1    0.000
22 C_3524 9.034 -1.709 -14.424 C.3 1 NIL_1    0.000
23 C_3526 10.028 -2.235 -15.470 C.3 1 NIL_1    0.000
24 H_35261 9.805 -3.275 -15.717 H 1 NIL_1    0.000
25 H_35262 11.048 -2.177 -15.085 H 1 NIL_1    0.000
26 H_35263 9.967 -1.639 -16.383 H 1 NIL_1    0.000
27 H_35241 9.112 -2.305 -13.513 H 1 NIL_1    0.000
28 H_35242 9.281 -0.676 -14.172 H 1 NIL_1    0.000
29 H_35221 7.519 -1.172 -15.868 H 1 NIL_1    0.000
30 H_35222 7.348 -2.815 -15.206 H 1 NIL_1    0.000
31 H_28301 3.980 0.033 -15.692 H 1 NIL_1    0.000
32 H_28302 5.604 0.686 -15.406 H 1 NIL_1    0.000
33 H_28281 3.904 -2.803 -15.294 H 1 NIL_1    0.000
34 H_28282 5.531 -3.420 -15.035 H 1 NIL_1    0.000
35 H_2827 6.228 -2.725 -17.142 H 1 NIL_1    0.000
36 H_36431 3.429 -6.510 -18.182 H 1 NIL_1    0.000
37 H_36432 3.309 -5.381 -19.526 H 1 NIL_1    0.000
38 H_3633 1.036 -6.674 -19.949 H 1 NIL_1    0.000
39 H_3629 1.371 -4.275 -16.596 H 1 NIL_1    0.000
40 H_3635 -1.325 -6.622 -19.755 H 1 NIL_1    0.000
41 H_3627 -0.991 -4.220 -16.402 H 1 NIL_1    0.000
42 HH 4.444 -4.892 -16.898 H 1 NIL_1    0.000
43 O 1.387 8.127 16.097 O.2 2 NIL_2    0.000
44 C_272 1.360 7.191 16.870 C.2 2 NIL_2    0.000
45 C_267 0.126 6.850 17.665 C.3 2 NIL_2    0.000
46 N 0.419 6.079 18.859 N.am 2 NIL_2    0.000
47 C_268 -0.687 8.074 18.129 C.3 2 NIL_2    0.000
48 C_270 -0.552 6.456 19.905 C.3 2 NIL_2    0.000
49 C.fa -1.485 7.562 19.343 C.3 2 NIL_2    0.000
50 NH -2.781 6.995 18.944 N.am 2 NIL_2    0.000
51 H.fa -1.647 8.357 20.075 H 2 NIL_2    0.000
52 H_2701 -0.001 6.842 20.766 H 2 NIL_2    0.000
53 H_2702 -1.138 5.585 20.210 H 2 NIL_2    0.000
54 H_2681 -1.333 8.469 17.341 H 2 NIL_2    0.000
55 H_2682 0.000 8.857 18.452 H 2 NIL_2    0.000
56 H_267 -0.500 6.227 17.021 H 2 NIL_2    0.000
57 HH -2.711 6.136 18.420 H 2 NIL_2    0.000
58 C_3869 1.453 5.213 18.998 C.2 3 NIL_3    0.000
59 C_3863 2.538 5.228 17.923 C.3 3 NIL_3    0.000
60 O 1.543 4.511 19.985 O.2 3 NIL_3    0.000
61 C_3862 2.511 3.950 17.047 C.3 3 NIL_3    0.000
62 C_3864 3.937 5.162 18.590 C.3 3 NIL_3    0.000
63 N 2.454 6.425 17.072 N.am 3 NIL_3    0.000
64 C_3861 3.683 3.054 17.504 C.3 3 NIL_3    0.000
65 N 4.625 3.932 18.170 N.am 3 NIL_3    0.000
66 H 3.288 6.659 16.555 H 3 NIL_3    0.000
67 C_3865 4.338 2.253 16.396 C.2 3 NIL_3    0.000
68 O 3.723 1.885 15.415 O.2 3 NIL_3    0.000
69 H_3861 3.322 2.335 18.244 H 3 NIL_3    0.000
70 H_38641 4.535 6.023 18.281 H 3 NIL_3    0.000
71 H_38642 3.834 5.170 19.678 H 3 NIL_3    0.000
72 H_38621 2.677 4.241 16.008 H 3 NIL_3    0.000
73 H_38622 1.552 3.433 17.111 H 3 NIL_3    0.000
74 C_2473 -1.970 -4.231 0.122 C.3 4 NIL_4    0.000
75 C_2472 -2.270 -4.091 -1.418 C.3 4 NIL_4    0.000
76 C_2474 -3.202 -4.853 0.853 C.3 4 NIL_4    0.000
77 N -3.497 -4.732 -1.738 N.am 4 NIL_4    0.000
78 C_2477 -1.310 -4.727 -2.357 C.2 4 NIL_4    0.000
79 C_2475 -4.212 -4.832 -0.398 C.3 4 NIL_4    0.000
80 C_2478 -3.652 -4.088 2.161 C.2 4 NIL_4    0.000
81 N -2.860 -6.228 1.279 N.am 4 NIL_4    0.000
82 O -0.127 -4.792 -2.093 O.2 4 NIL_4    0.000
83 O -4.354 -3.101 2.078 O.2 4 NIL_4    0.000
84 H_24751 -4.848 -5.720 -0.380 H 4 NIL_4    0.000
85 H_24752 -4.850 -3.950 -0.306 H 4 NIL_4    0.000
86 H_2472 -2.357 -3.035 -1.690 H 4 NIL_4    0.000
87 H_24731 -1.095 -4.869 0.271 H 4 NIL_4    0.000
88 H_24732 -1.744 -3.246 0.539 H 4 NIL_4    0.000
89 C_1306 -1.517 4.219 -13.198 C.2 5 NIL_5    0.000
90 C_1294 -1.678 5.168 -14.448 C.3 5 NIL_5    0.000
91 O -1.069 3.100 -13.346 O.2 5 NIL_5    0.000
92 C_1293 -0.395 5.260 -15.341 C.3 5 NIL_5    0.000
93 C_1295 -2.637 4.633 -15.590 C.3 5 NIL_5    0.000
94 N -2.044 6.521 -13.969 N.am 5 NIL_5    0.000
95 C_1292 -0.774 5.608 -16.837 C.3 5 NIL_5    0.000
96 N -2.252 5.110 -16.976 N.am 5 NIL_5    0.000
97 C_3544 -1.955 7.512 -15.037 C.3 5 NIL_5    0.000
98 C_1297 0.435 5.164 -17.816 C.2 5 NIL_5    0.000
99 C_3546 -2.340 8.910 -14.533 C.3 5 NIL_5    0.000
100 O 0.214 4.370 -18.707 O.2 5 NIL_5    0.000
101 NH 1.753 5.664 -17.662 N.am 5 NIL_5    0.000
102 C_3548 -2.282 9.928 -15.680 C.3 5 NIL_5    0.000
103 C_3668 3.099 5.419 -18.447 C.3 5 NIL_5    0.000
104 C_3656 3.752 3.989 -18.059 C.2 5 NIL_5    0.000
105 C_3654 4.603 3.061 -18.348 C.2 5 NIL_5    0.000
106 C_3658 3.583 3.048 -17.114 C.2 5 NIL_5    0.000
107 C_3652 5.524 2.412 -18.964 C.2 5 NIL_5    0.000
108 C_3660 4.319 1.178 -16.625 C.2 5 NIL_5    0.000
109 C_3574 5.365 1.452 -18.046 C.2 5 NIL_5    0.000
110 C_2831 6.031 0.121 -18.001 C.2 5 NIL_5    0.000
111 O 6.820 -0.235 -18.853 O.2 5 NIL_5    0.000
112 H_3660 4.142 1.160 -16.371 H 5 NIL_5    0.000
113 H_3652 6.127 2.556 -19.856 H 5 NIL_5    0.000
114 H_3658 2.838 3.182 -16.333 H 5 NIL_5    0.000
115 H_3654 4.445 3.062 -18.072 H 5 NIL_5    0.000
116 H_36681 3.799 6.223 -18.205 H 5 NIL_5    0.000
117 H_36682 2.888 5.448 -19.520 H 5 NIL_5    0.000
118 H_35481 -1.274 9.975 -16.097 H 5 NIL_5    0.000
119 H_35482 -2.557 10.921 -15.317 H 5 NIL_5    0.000
120 H_35483 -2.977 9.643 -16.474 H 5 NIL_5    0.000
121 H_35461 -1.659 9.214 -13.736 H 5 NIL_5    0.000
122 H_35462 -3.350 8.883 -14.120 H 5 NIL_5    0.000
123 H_35441 -2.632 7.216 -15.843 H 5 NIL_5    0.000
124 H_35442 -0.932 7.529 -15.421 H 5 NIL_5    0.000
125 H_1292 -0.815 6.698 -16.915 H 5 NIL_5    0.000
126 H_12951 -2.587 3.541 -15.598 H 5 NIL_5    0.000
127 H_12952 -3.667 4.929 -15.376 H 5 NIL_5    0.000
128 H_12931 0.091 4.282 -15.336 H 5 NIL_5    0.000
129 H_12932 0.314 5.985 -14.937 H 5 NIL_5    0.000
130 HH 1.868 6.310 -16.897 H 5 NIL_5    0.000
131 NH -5.906 -1.285 -17.639 N.am 6 NIL_6    0.000
132 C_3705 -6.368 -0.003 -18.438 C.3 6 NIL_6    0.000
133 C_2350 -4.804 -2.166 -17.770 C.2 6 NIL_6    0.000
134 C_3693 -5.544 1.390 -18.269 C.2 6 NIL_6    0.000
135 C_2345 -4.647 -3.526 -16.898 C.3 6 NIL_6    0.000
136 O -3.949 -1.893 -18.587 O.2 6 NIL_6    0.000
137 C_3691 -4.649 1.651 -17.304 C.2 6 NIL_6    0.000
138 C_3695 -5.666 2.455 -19.109 C.2 6 NIL_6    0.000
139 N -3.379 -4.424 -16.972 N.am 6 NIL_6    0.000
140 C_2346 -4.829 -3.224 -15.358 C.3 6 NIL_6    0.000
141 C_3689 -4.100 2.870 -17.361 C.2 6 NIL_6    0.000
142 C_3697 -4.995 3.654 -19.061 C.2 6 NIL_6    0.000
143 C_2348 -2.775 -4.344 -15.579 C.3 6 NIL_6    0.000
144 C_2347 -3.873 -4.092 -14.461 C.3 6 NIL_6    0.000
145 C_3585 -4.090 3.961 -18.117 C.2 6 NIL_6    0.000
146 N -4.486 -5.374 -14.031 N.am 6 NIL_6    0.000
147 C_2359 -3.466 -3.302 -13.155 C.2 6 NIL_6    0.000
148 C_1296 -3.230 5.177 -18.019 C.2 6 NIL_6    0.000
149 C_3508 -5.128 -6.069 -15.145 C.3 6 NIL_6    0.000
150 O -3.176 -2.125 -13.228 O.2 6 NIL_6    0.000
151 O -3.250 6.032 -18.881 O.2 6 NIL_6    0.000
152 C_3510 -6.644 -5.835 -15.191 C.3 6 NIL_6    0.000
153 C_3512 -7.275 -6.658 -16.324 C.3 6 NIL_6    0.000
154 H_35121 -7.069 -7.721 -16.183 H 6 NIL_6    0.000
155 H_35122 -6.868 -6.352 -17.289 H 6 NIL_6    0.000
156 H_35123 -8.357 -6.514 -16.343 H 6 NIL_6    0.000
157 H_35101 -6.848 -4.774 -15.346 H 6 NIL_6    0.000
158 H_35102 -7.087 -6.128 -14.237 H 6 NIL_6    0.000
159 H_35081 -4.931 -7.138 -15.040 H 6 NIL_6    0.000
160 H_35082 -4.676 -5.720 -16.077 H 6 NIL_6    0.000
161 H_23481 -2.069 -3.509 -15.571 H 6 NIL_6    0.000
162 H_23482 -2.229 -5.266 -15.365 H 6 NIL_6    0.000
163 H_3697 -5.194 4.384 -19.842 H 6 NIL_6    0.000
164 H_3689 -4.894 2.801 -18.102 H 6 NIL_6    0.000
165 H_23461 -4.577 -2.175 -15.197 H 6 NIL_6    0.000
166 H_23462 -5.870 -3.355 -15.061 H 6 NIL_6    0.000
167 H_3695 -6.367 2.334 -19.931 H 6 NIL_6    0.000
168 H_3691 -4.383 0.926 -16.540 H 6 NIL_6    0.000
169 H_2345 -5.484 -4.156 -17.207 H 6 NIL_6    0.000
170 H_37051 -7.410 0.184 -18.166 H 6 NIL_6    0.000
171 H_37052 -6.360 -0.271 -19.498 H 6 NIL_6    0.000
172 HH -6.569 -1.556 -16.929 H 6 NIL_6    0.000
173 C_3530 1.284 5.701 -1.634 C.3 7 NIL_7    0.000
174 C_1479 0.251 6.043 -0.551 C.3 7 NIL_7    0.000
175 C_1478 0.034 4.838 0.373 C.3 7 NIL_7    0.000
176 H_14781 -0.294 3.980 -0.218 H 7 NIL_7    0.000
177 H_14782 0.975 4.584 0.868 H 7 NIL_7    0.000
178 H_14791 0.597 6.897 0.034 H 7 NIL_7    0.000
179 H_14792 -0.695 6.318 -1.022 H 7 NIL_7    0.000
180 H_35301 0.936 4.861 -2.237 H 7 NIL_7    0.000
181 H_35302 2.238 5.430 -1.175 H 7 NIL_7    0.000
182 H_35303 1.443 6.560 -2.289 H 7 NIL_7    0.000
183 C_1477 -3.094 8.759 -4.417 C.3 8 NIL_8    0.000
184 C_1476 -2.681 7.356 -4.885 C.3 8 NIL_8    0.000
185 C_3532 -3.071 9.745 -5.594 C.3 8 NIL_8    0.000
186 H_35321 -3.764 9.421 -6.374 H 8 NIL_8    0.000
187 H_35322 -2.068 9.802 -6.021 H 8 NIL_8    0.000
188 H_35323 -3.365 10.742 -5.259 H 8 NIL_8    0.000
189 H_14761 -3.367 7.017 -5.665 H 8 NIL_8    0.000
190 H_14762 -1.669 7.394 -5.296 H 8 NIL_8    0.000
191 H_14771 -2.411 9.103 -3.638 H 8 NIL_8    0.000
192 H_14772 -4.099 8.723 -3.991 H 8 NIL_8    0.000
193 C_2935 6.038 -0.339 -11.758 C.3 9 NIL_9    0.000
194 N 4.786 -1.012 -11.980 N.am 9 NIL_9    0.000
195 C_2936 6.385 -0.388 -10.222 C.3 9 NIL_9    0.000
196 C_2939 7.072 -0.833 -12.760 C.2 9 NIL_9    0.000
197 C_2938 4.151 -1.167 -10.615 C.3 9 NIL_9    0.000
198 C_2937 5.201 -1.024 -9.420 C.3 9 NIL_9    0.000
199 O 8.254 -0.855 -12.483 O.2 9 NIL_9    0.000
200 N 5.640 -2.339 -8.907 N.am 9 NIL_9    0.000
201 C_2948 4.694 -0.209 -8.167 C.2 9 NIL_9    0.000
202 O 3.871 0.673 -8.305 O.2 9 NIL_9    0.000
203 H_29381 3.653 -2.138 -10.552 H 9 NIL_9    0.000
204 H_29382 3.396 -0.384 -10.510 H 9 NIL_9    0.000
205 H_29361 7.291 -0.976 -10.061 H 9 NIL_9    0.000
206 H_29362 6.576 0.624 -9.859 H 9 NIL_9    0.000
207 H_2935 5.870 0.708 -12.020 H 9 NIL_9    0.000
208 O -4.851 -7.092 -12.642 O.2 10 NIL_10    0.000
209 C_2360 -4.336 -6.008 -12.825 C.2 10 NIL_10    0.000
210 C_2355 -3.531 -5.333 -11.720 C.3 10 NIL_10    0.000
211 N -3.530 -3.906 -11.902 N.am 10 NIL_10    0.000
212 C_2356 -3.894 -5.653 -10.219 C.3 10 NIL_10    0.000
213 C_2358 -3.439 -3.316 -10.506 C.3 10 NIL_10    0.000
214 C_2357 -3.771 -4.362 -9.334 C.3 10 NIL_10    0.000
215 N -5.078 -4.103 -8.669 N.am 10 NIL_10    0.000
216 C_2369 -2.699 -4.423 -8.182 C.2 10 NIL_10    0.000
217 O -1.527 -4.226 -8.426 O.2 10 NIL_10    0.000
218 H_23581 -4.124 -2.465 -10.442 H 10 NIL_10    0.000
219 H_23582 -2.420 -2.945 -10.369 H 10 NIL_10    0.000
220 H_23561 -4.926 -6.005 -10.173 H 10 NIL_10    0.000
221 H_23562 -3.252 -6.447 -9.834 H 10 NIL_10    0.000
222 H_2355 -2.500 -5.659 -11.882 H 10 NIL_10    0.000
223 N -0.972 5.108 1.396 N.am 11 NIL_11    0.000
224 C_1424 -2.343 4.934 0.867 C.3 11 NIL_11    0.000
225 C_1423 -2.793 6.202 0.060 C.3 11 NIL_11    0.000
226 C_1425 -2.311 3.890 -0.345 C.3 11 NIL_11    0.000
227 C_1428 -3.279 4.598 2.093 C.2 11 NIL_11    0.000
228 C_1422 -3.152 5.775 -1.410 C.3 11 NIL_11    0.000
229 N -2.441 4.560 -1.698 N.am 11 NIL_11    0.000
230 O -4.361 4.081 1.907 O.2 11 NIL_11    0.000
231 C_1427 -3.022 6.805 -2.523 C.2 11 NIL_11    0.000
232 O -3.220 7.982 -2.303 O.2 11 NIL_11    0.000
233 H_1422 -4.210 5.501 -1.412 H 11 NIL_11    0.000
234 H_14251 -1.382 3.317 -0.313 H 11 NIL_11    0.000
235 H_14252 -3.150 3.198 -0.233 H 11 NIL_11    0.000
236 H_14231 -1.967 6.916 0.036 H 11 NIL_11    0.000
237 H_14232 -3.646 6.686 0.539 H 11 NIL_11    0.000
238 C_3012 6.102 2.071 5.741 C.3 12 NIL_12    0.000
239 C_3013 7.554 2.156 5.254 C.3 12 NIL_12    0.000
240 C_3514 7.721 3.350 4.305 C.3 12 NIL_12    0.000
241 H_35141 7.477 4.281 4.822 H 12 NIL_12    0.000
242 H_35142 7.057 3.245 3.444 H 12 NIL_12    0.000
243 H_35143 8.750 3.410 3.947 H 12 NIL_12    0.000
244 H_30131 7.821 1.232 4.735 H 12 NIL_12    0.000
245 H_30132 8.223 2.269 6.110 H 12 NIL_12    0.000
246 H_30121 5.837 2.997 6.257 H 12 NIL_12    0.000
247 H_30122 5.439 1.948 4.881 H 12 NIL_12    0.000
248 N -2.409 4.882 -6.831 N.am 13 NIL_13    0.000
249 C_1412 -1.222 5.611 -6.456 C.3 13 NIL_13    0.000
250 C_1415 -3.075 4.514 -5.510 C.3 13 NIL_13    0.000
251 C_1413 -0.898 5.209 -4.977 C.3 13 NIL_13    0.000
252 C_1417 -0.113 5.433 -7.476 C.2 13 NIL_13    0.000
253 C_1414 -2.262 5.053 -4.237 C.3 13 NIL_13    0.000
254 O 1.054 5.506 -7.150 O.2 13 NIL_13    0.000
255 N -2.706 6.393 -3.788 N.am 13 NIL_13    0.000
256 C_1426 -2.144 4.104 -2.980 C.2 13 NIL_13    0.000
257 O -1.741 2.968 -3.120 O.2 13 NIL_13    0.000
258 H_14131 -0.381 4.247 -4.978 H 13 NIL_13    0.000
259 H_14132 -0.258 5.948 -4.490 H 13 NIL_13    0.000
260 H_14151 -3.125 3.423 -5.458 H 13 NIL_13    0.000
261 H_14152 -4.094 4.909 -5.494 H 13 NIL_13    0.000
262 H_1412 -1.484 6.672 -6.478 H 13 NIL_13    0.000
263 C_1480 -3.180 7.202 6.141 C.3 14 NIL_14    0.000
264 C_1481 -1.840 7.820 5.718 C.3 14 NIL_14    0.000
265 C_3528 -2.082 9.065 4.853 C.3 14 NIL_14    0.000
266 H_35281 -2.652 9.809 5.412 H 14 NIL_14    0.000
267 H_35282 -2.643 8.797 3.956 H 14 NIL_14    0.000
268 H_35283 -1.130 9.507 4.550 H 14 NIL_14    0.000
269 H_14811 -1.261 7.088 5.151 H 14 NIL_14    0.000
270 H_14812 -1.264 8.092 6.604 H 14 NIL_14    0.000
271 H_14801 -3.731 7.918 6.757 H 14 NIL_14    0.000
272 H_14802 -3.772 6.973 5.251 H 14 NIL_14    0.000
273 C_1304 -1.797 4.979 -9.342 C.3 15 NIL_15    0.000
274 C_1303 -2.233 6.258 -10.139 C.3 15 NIL_15    0.000
275 C_1305 -1.718 3.959 -10.573 C.3 15 NIL_15    0.000
276 N -0.445 5.152 -8.767 N.am 15 NIL_15    0.000
277 C_1316 -2.769 4.613 -8.151 C.2 15 NIL_15    0.000
278 C_1302 -2.564 5.855 -11.621 C.3 15 NIL_15    0.000
279 N -1.835 4.652 -11.915 N.am 15 NIL_15    0.000
280 O -3.824 4.058 -8.378 O.2 15 NIL_15    0.000
281 C_1307 -2.401 6.906 -12.708 C.2 15 NIL_15    0.000
282 O -2.590 8.081 -12.466 O.2 15 NIL_15    0.000
283 H_1302 -3.621 5.577 -11.656 H 15 NIL_15    0.000
284 H_13051 -0.774 3.409 -10.532 H 15 NIL_15    0.000
285 H_13052 -2.540 3.245 -10.491 H 15 NIL_15    0.000
286 H_13031 -1.403 6.968 -10.141 H 15 NIL_15    0.000
287 H_13032 -3.092 6.742 -9.668 H 15 NIL_15    0.000
288 C_2476 -3.930 -4.901 -3.059 C.2 16 NIL_16    0.000
289 C_2464 -3.025 -5.275 -4.341 C.3 16 NIL_16    0.000
290 O -5.133 -4.886 -3.230 O.2 16 NIL_16    0.000
291 C_2463 -4.417 -4.774 -4.887 C.3 16 NIL_16    0.000
292 C_2465 -2.382 -4.442 -5.550 C.3 16 NIL_16    0.000
293 N -1.802 -5.358 -3.461 N.am 16 NIL_16    0.000
294 C_2462 -4.403 -5.032 -6.452 C.3 16 NIL_16    0.000
295 N -3.096 -4.631 -6.865 N.am 16 NIL_16    0.000
296 C_2467 -5.440 -4.404 -7.377 C.2 16 NIL_16    0.000
297 O -6.570 -4.182 -6.994 O.2 16 NIL_16    0.000
298 H_2462 -4.473 -6.110 -6.621 H 16 NIL_16    0.000
299 H_24651 -2.386 -3.380 -5.293 H 16 NIL_16    0.000
300 H_24652 -1.345 -4.760 -5.681 H 16 NIL_16    0.000
301 H_24631 -4.531 -3.706 -4.693 H 16 NIL_16    0.000
302 H_24632 -5.244 -5.305 -4.411 H 16 NIL_16    0.000
303 N -5.415 -2.943 18.812 N.am 17 NIL_17    0.000
304 C_734 -5.477 -3.561 17.500 C.3 17 NIL_17    0.000
305 C_737 -5.580 -3.989 19.838 C.3 17 NIL_17    0.000
306 C_735 -6.108 -4.957 17.698 C.3 17 NIL_17    0.000
307 C_739 -6.167 -2.678 16.489 C.2 17 NIL_17    0.000
308 C.fb -5.745 -5.367 19.143 C.3 17 NIL_17    0.000
309 O -6.744 -3.129 15.521 O.2 17 NIL_17    0.000
310 NH -4.512 -6.176 19.211 N.am 17 NIL_17    0.000
311 H.fb -6.562 -5.937 19.594 H 17 NIL_17    0.000
312 H_7351 -5.746 -5.681 16.964 H 17 NIL_17    0.000
313 H_7352 -7.192 -4.883 17.605 H 17 NIL_17    0.000
314 H_7371 -6.485 -3.766 20.408 H 17 NIL_17    0.000
315 H_7372 -4.720 -3.997 20.511 H 17 NIL_17    0.000
316 H_734 -4.450 -3.687 17.149 H 17 NIL_17    0.000
317 HH -3.657 -5.660 19.071 H 17 NIL_17    0.000
318 C_2526 -0.860 -6.248 -4.137 C.3 18 NIL_18    0.000
319 C_2527 0.466 -6.361 -3.367 C.3 18 NIL_18    0.000
320 C_3504 1.414 -7.362 -4.045 C.3 18 NIL_18    0.000
321 H_35041 0.964 -8.356 -4.072 H 18 NIL_18    0.000
322 H_35042 2.356 -7.424 -3.493 H 18 NIL_18    0.000
323 H_35043 1.629 -7.050 -5.069 H 18 NIL_18    0.000
324 H_25271 0.268 -6.686 -2.346 H 18 NIL_18    0.000
325 H_25272 0.944 -5.381 -3.317 H 18 NIL_18    0.000
326 H_25261 -0.665 -5.861 -5.141 H 18 NIL_18    0.000
327 H_25262 -1.316 -7.238 -4.222 H 18 NIL_18    0.000
328 C_3832 0.803 -4.936 17.804 C.3 19 NIL_19    0.000
329 N 1.199 -6.197 18.395 N.am 19 NIL_19    0.000
330 C_3833 2.092 -4.112 17.573 C.3 19 NIL_19    0.000
331 C_3837 -0.053 -5.157 16.572 C.2 19 NIL_19    0.000
332 C_3835 2.574 -6.084 18.916 C.3 19 NIL_19    0.000
333 C_3834 3.246 -4.800 18.351 C.3 19 NIL_19    0.000
334 O -0.008 -4.419 15.609 O.2 19 NIL_19    0.000
335 N 4.309 -5.158 17.399 N.am 19 NIL_19    0.000
336 C_3841 3.788 -3.949 19.504 C.2 19 NIL_19    0.000
337 H 4.124 -5.951 16.804 H 19 NIL_19    0.000
338 O 3.184 -3.844 20.552 O.2 19 NIL_19    0.000
339 H_38351 3.151 -6.967 18.626 H 19 NIL_19    0.000
340 H_38352 2.532 -6.025 20.007 H 19 NIL_19    0.000
341 H_38331 2.327 -4.123 16.506 H 19 NIL_19    0.000
342 H_38332 1.959 -3.075 17.891 H 19 NIL_19    0.000
343 H_3832 0.173 -4.422 18.534 H 19 NIL_19    0.000
344 N -3.747 3.525 16.684 N.am 20 NIL_20    0.000
345 C_727 -4.843 4.131 17.491 C.3 20 NIL_20    0.000
346 C_726 -4.293 4.984 18.663 C.3 20 NIL_20    0.000
347 C_728 -5.667 5.168 16.695 C.3 20 NIL_20    0.000
348 C_738 -5.808 3.079 18.032 C.2 20 NIL_20    0.000
349 C_725 -4.985 6.370 18.622 C.3 20 NIL_20    0.000
350 N -5.286 6.508 17.191 N.3 20 NIL_20    0.000
351 O -6.921 3.372 18.418 O.2 20 NIL_20    0.000
352 C_729 -4.048 7.420 19.206 C.2 20 NIL_20    0.000
353 O -4.352 8.429 19.808 O.2 20 NIL_20    0.000
354 H_725 -5.911 6.346 19.200 H 20 NIL_20    0.000
355 H_7281 -5.509 5.079 15.618 H 20 NIL_20    0.000
356 H_7282 -6.725 5.011 16.917 H 20 NIL_20    0.000
357 H_7261 -3.222 5.127 18.511 H 20 NIL_20    0.000
358 H_7262 -4.440 4.493 19.626 H 20 NIL_20    0.000
359 C_111 -1.393 -8.597 17.320 C.3 21 NIL_21    0.000
360 C_110 -0.945 -7.178 17.740 C.3 21 NIL_21    0.000
361 N -2.796 -8.759 17.760 N.3 21 NIL_21    0.000
362 C_109 -2.084 -6.732 18.693 C.3 21 NIL_21    0.000
363 N -0.824 -6.271 16.572 N.am 21 NIL_21    0.000
364 C_137 0.369 -7.261 18.510 C.2 21 NIL_21    0.000
365 C_108 -2.972 -7.966 18.987 C.3 21 NIL_21    0.000
366 O 0.685 -8.244 19.149 O.2 21 NIL_21    0.000
367 C_113 -4.404 -7.534 19.302 C.2 21 NIL_21    0.000
368 O -5.337 -8.280 19.513 O.2 21 NIL_21    0.000
369 H_108 -2.569 -8.509 19.847 H 21 NIL_21    0.000
370 H_1091 -2.693 -5.980 18.184 H 21 NIL_21    0.000
371 H_1092 -1.690 -6.289 19.611 H 21 NIL_21    0.000
372 H_1111 -1.311 -8.740 16.240 H 21 NIL_21    0.000
373 H_1112 -0.767 -9.332 17.832 H 21 NIL_21    0.000
374 O 4.446 0.860 14.277 O.2 22 NIL_22    0.000
375 C_243 5.654 0.961 14.225 C.2 22 NIL_22    0.000
376 C_2292 6.469 1.461 15.408 C.3 22 NIL_22    0.000
377 H_22921 7.063 0.620 15.773 H 22 NIL_22    0.000
378 H_22922 7.146 2.232 15.033 H 22 NIL_22    0.000
379 C_3506 -7.411 -1.793 -10.634 C.3 23 NIL_23    0.000
380 C_2522 -6.299 -2.158 -9.640 C.3 23 NIL_23    0.000
381 C_2521 -6.096 -3.679 -9.628 C.3 23 NIL_23    0.000
382 H_25211 -7.041 -4.164 -9.369 H 23 NIL_23    0.000
383 H_25212 -5.798 -4.010 -10.626 H 23 NIL_23    0.000
384 H_25221 -5.368 -1.662 -9.927 H 23 NIL_23    0.000
385 H_25222 -6.575 -1.817 -8.639 H 23 NIL_23    0.000
386 H_35061 -8.334 -2.314 -10.373 H 23 NIL_23    0.000
387 H_35062 -7.123 -2.089 -11.646 H 23 NIL_23    0.000
388 H_35063 -7.596 -0.717 -10.623 H 23 NIL_23    0.000
389 C_2956 5.563 -0.562 0.765 C.3 24 NIL_24    0.000
390 C_2955 6.048 0.670 -0.072 C.3 24 NIL_24    0.000
391 C_2957 4.798 -1.351 -0.396 C.3 24 NIL_24    0.000
392 C_2960 4.695 -0.223 2.039 C.2 24 NIL_24    0.000
393 N 6.751 -1.301 1.247 N.am 24 NIL_24    0.000
394 C_2954 5.602 0.517 -1.575 C.3 24 NIL_24    0.000
395 N 5.104 -0.817 -1.780 N.am 24 NIL_24    0.000
396 O 3.508 0.005 1.924 O.2 24 NIL_24    0.000
397 C_2959 6.588 0.897 -2.672 C.2 24 NIL_24    0.000
398 O 7.454 1.724 -2.474 O.2 24 NIL_24    0.000
399 H_2954 4.746 1.180 -1.728 H 24 NIL_24    0.000
400 H_29571 5.056 -2.412 -0.354 H 24 NIL_24    0.000
401 H_29572 3.721 -1.252 -0.236 H 24 NIL_24    0.000
402 H_29551 7.136 0.730 -0.020 H 24 NIL_24    0.000
403 H_29552 5.641 1.595 0.342 H 24 NIL_24    0.000
404 C_2858 5.507 0.097 9.041 C.3 25 NIL_25    0.000
405 C_2854 5.890 1.181 8.016 C.2 25 NIL_25    0.000
406 NH 5.481 -1.196 8.302 N.am 25 NIL_25    0.000
407 C_2870 6.304 0.217 10.472 C.3 25 NIL_25    0.000
408 O 6.180 2.290 8.414 O.2 25 NIL_25    0.000
409 C_2878 5.656 -0.018 11.960 C.3 25 NIL_25    0.000
410 NH 6.336 0.614 13.104 N.am 25 NIL_25    0.000
411 H_28781 4.637 0.376 11.944 H 25 NIL_25    0.000
412 H_28782 5.591 -1.093 12.148 H 25 NIL_25    0.000
413 H_28701 6.662 1.249 10.496 H 25 NIL_25    0.000
414 H_28702 7.208 -0.390 10.401 H 25 NIL_25    0.000
415 H_2858 4.461 0.322 9.266 H 25 NIL_25    0.000
416 HH 7.341 0.701 13.077 H 25 NIL_25    0.000
417 HH 5.368 -2.007 8.892 H 25 NIL_25    0.000
418 C_2299 -3.019 4.432 15.767 C.3 26 NIL_26    0.000
419 C_309 -3.565 4.447 14.347 C.2 26 NIL_26    0.000
420 O -4.731 4.203 14.113 O.2 26 NIL_26    0.000
421 H_22991 -1.973 4.118 15.709 H 26 NIL_26    0.000
422 H_22992 -3.062 5.456 16.149 H 26 NIL_26    0.000
423 O -1.956 2.593 6.378 O.2 27 NIL_27    0.000
424 C_1320 -2.309 3.635 6.891 C.2 27 NIL_27    0.000
425 C_1314 -2.574 4.857 5.997 C.3 27 NIL_27    0.000
426 C_1313 -1.276 5.199 5.196 C.3 27 NIL_27    0.000
427 C_1315 -3.519 4.549 4.737 C.3 27 NIL_27    0.000
428 N -2.988 5.974 6.906 N.am 27 NIL_27    0.000
429 C_1312 -1.669 5.594 3.732 C.3 27 NIL_27    0.000
430 N -2.861 4.854 3.399 N.am 27 NIL_27    0.000
431 C_1317 -0.597 5.428 2.668 C.2 27 NIL_27    0.000
432 O 0.579 5.540 2.945 O.2 27 NIL_27    0.000
433 H_1312 -1.945 6.652 3.720 H 27 NIL_27    0.000
434 H_13151 -3.798 3.492 4.749 H 27 NIL_27    0.000
435 H_13152 -4.430 5.148 4.819 H 27 NIL_27    0.000
436 H_13131 -0.651 4.304 5.153 H 27 NIL_27    0.000
437 H_13132 -0.703 5.990 5.681 H 27 NIL_27    0.000
438 C_2848 6.914 -0.735 5.031 C.3 28 NIL_28    0.000
439 C_2847 6.684 -0.325 3.534 C.3 28 NIL_28    0.000
440 C_2849 5.677 -0.312 5.892 C.3 28 NIL_28    0.000
441 N 5.261 -0.256 3.311 N.am 28 NIL_28    0.000
442 C_2852 7.345 -1.193 2.473 C.2 28 NIL_28    0.000
443 C_2850 4.620 -0.205 4.691 C.3 28 NIL_28    0.000
444 N 5.889 0.952 6.654 N.am 28 NIL_28    0.000
445 C_2855 5.405 -1.417 6.938 C.2 28 NIL_28    0.000
446 O 8.363 -1.810 2.713 O.2 28 NIL_28    0.000
447 O 5.160 -2.542 6.552 O.2 28 NIL_28    0.000
448 H_28501 3.922 -1.043 4.765 H 28 NIL_28    0.000
449 H_28502 4.054 0.724 4.787 H 28 NIL_28    0.000
450 H_2847 7.075 0.686 3.388 H 28 NIL_28    0.000
451 H_28481 7.005 -1.822 5.075 H 28 NIL_28    0.000
452 H_28482 7.838 -0.304 5.424 H 28 NIL_28    0.000
453 C_766 -1.987 -5.651 14.401 C.2 29 NIL_29    0.000
454 C_2285 -1.522 -6.748 15.354 C.3 29 NIL_29    0.000
455 O -2.107 -4.498 14.759 O.2 29 NIL_29    0.000
456 H_22851 -2.407 -7.315 15.651 H 29 NIL_29    0.000
457 H_22852 -0.855 -7.409 14.792 H 29 NIL_29    0.000
458 C_271 5.929 3.647 18.383 C.2 30 NIL_30    0.000
459 C_259 6.489 2.416 17.684 C.3 30 NIL_30    0.000
460 O 6.626 4.373 19.061 O.2 30 NIL_30    0.000
461 C_258 6.664 1.275 18.722 C.3 30 NIL_30    0.000
462 C_260 7.944 2.689 17.244 C.3 30 NIL_30    0.000
463 N 5.667 2.019 16.517 N.am 30 NIL_30    0.000
464 C_257 8.180 1.159 19.016 C.3 30 NIL_30    0.000
465 N 8.749 1.546 17.723 N.3 30 NIL_30    0.000
466 C_262 8.535 -0.232 19.525 C.2 30 NIL_30    0.000
467 O 9.655 -0.662 19.711 O.2 30 NIL_30    0.000
468 H_257 8.461 1.892 19.776 H 30 NIL_30    0.000
469 H_2601 8.022 2.792 16.158 H 30 NIL_30    0.000
470 H_2602 8.295 3.604 17.729 H 30 NIL_30    0.000
471 H_2581 6.316 0.335 18.286 H 30 NIL_30    0.000
472 H_2582 6.093 1.465 19.634 H 30 NIL_30    0.000
473 C.fc 7.254 -2.425 19.812 C.3 31 NIL_31    0.000
474 C_134 7.226 -3.144 18.450 C.3 31 NIL_31    0.000
475 C_136 5.879 -2.835 20.421 C.3 31 NIL_31    0.000
476 NH 7.392 -0.965 19.649 N.am 31 NIL_31    0.000
477 C_133 5.736 -3.302 18.097 C.3 31 NIL_31    0.000
478 N 5.016 -3.388 19.353 N.am 31 NIL_31    0.000
479 C_138 5.446 -4.462 17.178 C.2 31 NIL_31    0.000
480 O 6.212 -4.786 16.293 O.2 31 NIL_31    0.000
481 H_133 5.391 -2.399 17.588 H 31 NIL_31    0.000
482 H_1361 6.042 -3.616 21.169 H 31 NIL_31    0.000
483 H_1362 5.398 -1.975 20.893 H 31 NIL_31    0.000
484 H_1341 7.768 -2.586 17.684 H 31 NIL_31    0.000
485 H_1342 7.673 -4.135 18.559 H 31 NIL_31    0.000
486 H.fc 8.081 -2.793 20.426 H 31 NIL_31    0.000
487 HH 6.526 -0.473 19.495 H 31 NIL_31    0.000
488 C_2366 -2.484 -6.145 5.097 C.3 32 NIL_32    0.000
489 C_2365 -2.320 -5.606 3.629 C.3 32 NIL_32    0.000
490 C_2367 -3.132 -5.040 6.000 C.3 32 NIL_32    0.000
491 N -3.301 -4.569 3.425 N.am 32 NIL_32    0.000
492 C_2370 -2.393 -6.627 2.501 C.2 32 NIL_32    0.000
493 C_2368 -3.761 -4.155 4.818 C.3 32 NIL_32    0.000
494 N -2.149 -4.341 6.884 N.am 32 NIL_32    0.000
495 C_2373 -4.166 -5.702 6.934 C.2 32 NIL_32    0.000
496 O -2.084 -7.786 2.686 O.2 32 NIL_32    0.000
497 O -5.095 -6.310 6.442 O.2 32 NIL_32    0.000
498 H_23681 -4.849 -4.255 4.854 H 32 NIL_32    0.000
499 H_23682 -3.507 -3.104 4.980 H 32 NIL_32    0.000
500 H_2365 -1.338 -5.132 3.547 H 32 NIL_32    0.000
501 H_23661 -3.154 -7.007 5.077 H 32 NIL_32    0.000
502 H_23662 -1.526 -6.476 5.506 H 32 NIL_32    0.000
503 C_3885 -4.100 -0.112 17.358 C.3 33 NIL_33    0.000
504 C_3884 -4.036 1.363 17.808 C.3 33 NIL_33    0.000
505 C_3886 -5.456 -0.678 17.845 C.3 33 NIL_33    0.000
506 N -5.403 1.788 18.002 N.am 33 NIL_33    0.000
507 C_3888 -3.272 2.271 16.872 C.2 33 NIL_33    0.000
508 C_3887 -6.233 0.601 18.272 C.3 33 NIL_33    0.000
509 N -6.147 -1.347 16.730 N.am 33 NIL_33    0.000
510 C_3892 -5.285 -1.613 19.040 C.2 33 NIL_33    0.000
511 O -2.278 1.891 16.288 O.2 33 NIL_33    0.000
512 H -6.606 -0.739 16.067 H 33 NIL_33    0.000
513 O -5.113 -1.193 20.165 O.2 33 NIL_33    0.000
514 H_38871 -7.168 0.675 17.710 H 33 NIL_33    0.000
515 H_38872 -6.453 0.556 19.343 H 33 NIL_33    0.000
516 H_3884 -3.543 1.423 18.783 H 33 NIL_33    0.000
517 H_38851 -4.073 -0.147 16.266 H 33 NIL_33    0.000
518 H_38852 -3.254 -0.684 17.745 H 33 NIL_33    0.000
519 C_3009 8.169 1.944 -4.643 C.3 34 NIL_34    0.000
520 C_3008 7.356 0.690 -4.994 C.3 34 NIL_34    0.000
521 C_3518 8.998 2.396 -5.853 C.3 34 NIL_34    0.000
522 H_35181 8.343 2.619 -6.699 H 34 NIL_34    0.000
523 H_35182 9.695 1.609 -6.150 H 34 NIL_34    0.000
524 H_35183 9.569 3.294 -5.608 H 34 NIL_34    0.000
525 H_30081 6.733 0.896 -5.868 H 34 NIL_34    0.000
526 H_30082 8.038 -0.130 -5.232 H 34 NIL_34    0.000
527 H_30091 8.830 1.730 -3.800 H 34 NIL_34    0.000
528 H_30092 7.493 2.747 -4.344 H 34 NIL_34    0.000
529 N 6.492 0.281 -3.891 N.am 35 NIL_35    0.000
530 C_2946 5.496 -0.727 -4.327 C.3 35 NIL_35    0.000
531 C_2945 6.167 -1.876 -5.145 C.3 35 NIL_35    0.000
532 C_2947 4.585 -0.167 -5.515 C.3 35 NIL_35    0.000
533 C_2958 4.813 -1.327 -3.039 C.2 35 NIL_35    0.000
534 C_2944 6.214 -1.466 -6.656 C.3 35 NIL_35    0.000
535 N 5.120 -0.553 -6.888 N.am 35 NIL_35    0.000
536 O 4.096 -2.302 -3.132 O.2 35 NIL_35    0.000
537 C_2949 6.172 -2.596 -7.676 C.2 35 NIL_35    0.000
538 O 6.555 -3.713 -7.393 O.2 35 NIL_35    0.000
539 H_2944 7.138 -0.913 -6.842 H 35 NIL_35    0.000
540 H_29471 3.583 -0.593 -5.420 H 35 NIL_35    0.000
541 H_29472 4.508 0.921 -5.445 H 35 NIL_35    0.000
542 H_29451 5.549 -2.771 -5.050 H 35 NIL_35    0.000
543 H_29452 7.163 -2.108 -4.763 H 35 NIL_35    0.000
544 C_662 10.689 2.232 16.377 C.3 36 NIL_36    0.000
545 C_660 10.193 1.812 17.768 C.3 36 NIL_36    0.000
546 H_6601 10.717 0.907 18.087 H 36 NIL_36    0.000
547 H_6602 10.393 2.612 18.485 H 36 NIL_36    0.000
548 H_6621 10.172 3.135 16.046 H 36 NIL_36    0.000
549 H_6622 10.497 1.437 15.652 H 36 NIL_36    0.000
550 H_6623 11.762 2.434 16.401 H 36 NIL_36    0.000
551 C_769 -6.300 7.540 16.926 C.3 37 NIL_37    0.000
552 C_770 -6.648 7.594 15.431 C.3 37 NIL_37    0.000
553 H_7701 -7.032 6.628 15.096 H 37 NIL_37    0.000
554 H_7702 -5.767 7.851 14.838 H 37 NIL_37    0.000
555 H_7703 -7.415 8.352 15.256 H 37 NIL_37    0.000
556 H_7691 -5.921 8.513 17.250 H 37 NIL_37    0.000
557 H_7692 -7.203 7.306 17.497 H 37 NIL_37    0.000
558 NH -4.057 -5.672 8.312 N.am 38 NIL_38    0.000
559 C_2376 -3.139 -4.889 9.189 C.3 38 NIL_38    0.000
560 C_2372 -2.053 -4.301 8.266 C.2 38 NIL_38    0.000
561 C_2388 -2.628 -5.637 10.557 C.3 38 NIL_38    0.000
562 O -1.095 -3.744 8.761 O.2 38 NIL_38    0.000
563 C_2396 -2.844 -5.119 12.105 C.3 38 NIL_38    0.000
564 NH -2.273 -6.028 13.127 N.am 38 NIL_38    0.000
565 H_23961 -2.375 -4.138 12.219 H 38 NIL_38    0.000
566 H_23962 -3.913 -5.017 12.306 H 38 NIL_38    0.000
567 H_23881 -1.554 -5.794 10.432 H 38 NIL_38    0.000
568 H_23882 -3.062 -6.640 10.523 H 38 NIL_38    0.000
569 H_2376 -3.716 -4.019 9.516 H 38 NIL_38    0.000
570 HH -2.141 -6.992 12.862 H 38 NIL_38    0.000
571 HH -4.768 -6.177 8.817 H 38 NIL_38    0.000
572 C_3542 3.070 4.562 -10.142 C.3 39 NIL_39    0.000
573 C_1472 1.989 4.862 -9.095 C.3 39 NIL_39    0.000
574 C_1471 0.601 4.880 -9.749 C.3 39 NIL_39    0.000
575 H_14711 0.571 5.653 -10.522 H 39 NIL_39    0.000
576 H_14712 0.404 3.910 -10.212 H 39 NIL_39    0.000
577 H_14721 2.014 4.098 -8.315 H 39 NIL_39    0.000
578 H_14722 2.188 5.828 -8.626 H 39 NIL_39    0.000
579 H_35421 3.070 5.329 -10.918 H 39 NIL_39    0.000
580 H_35422 2.887 3.592 -10.608 H 39 NIL_39    0.000
581 H_35423 4.056 4.541 -9.672 H 39 NIL_39    0.000
582 C_188 -2.956 -10.889 16.541 C.3 40 NIL_40    0.000
583 C_112 -3.228 -10.164 17.867 C.3 40 NIL_40    0.000
584 H_1121 -4.296 -10.204 18.096 H 40 NIL_40    0.000
585 H_1122 -2.679 -10.658 18.674 H 40 NIL_40    0.000
586 H_1881 -1.882 -10.922 16.343 H 40 NIL_40    0.000
587 H_1882 -3.447 -10.364 15.718 H 40 NIL_40    0.000
588 H_1883 -3.336 -11.913 16.578 H 40 NIL_40    0.000
589 C_2531 -0.060 -4.490 5.537 C.3 41 NIL_41    0.000
590 C_2530 -1.187 -3.597 6.076 C.3 41 NIL_41    0.000
591 C_3500 0.884 -3.663 4.651 C.3 41 NIL_41    0.000
592 H_35001 0.341 -3.256 3.795 H 41 NIL_41    0.000
593 H_35002 1.703 -4.285 4.281 H 41 NIL_41    0.000
594 H_35003 1.305 -2.831 5.221 H 41 NIL_41    0.000
595 H_25301 -0.758 -2.802 6.691 H 41 NIL_41    0.000
596 H_25302 -1.720 -3.145 5.236 H 41 NIL_41    0.000
597 H_25311 -0.488 -5.309 4.953 H 41 NIL_41    0.000
598 H_25312 0.499 -4.923 6.370 H 41 NIL_41    0.000
599 C_2528 -3.080 -7.199 0.213 C.3 42 NIL_42    0.000
600 C_2529 -1.922 -7.232 -0.791 C.3 42 NIL_42    0.000
601 C_3502 -2.218 -8.276 -1.876 C.3 42 NIL_42    0.000
602 H_35021 -3.169 -8.049 -2.363 H 42 NIL_42    0.000
603 H_35022 -2.286 -9.271 -1.429 H 42 NIL_42    0.000
604 H_35023 -1.428 -8.278 -2.631 H 42 NIL_42    0.000
605 H_25291 -0.990 -7.481 -0.277 H 42 NIL_42    0.000
606 H_25292 -1.804 -6.246 -1.247 H 42 NIL_42    0.000
607 H_25281 -4.002 -6.935 -0.311 H 42 NIL_42    0.000
608 H_25282 -3.202 -8.189 0.660 H 42 NIL_42    0.000
609 NH -2.710 4.777 13.343 N.am 43 NIL_43    0.000
610 C_1343 -3.244 5.101 12.010 C.3 43 NIL_43    0.000
611 C_1335 -2.366 4.823 10.658 C.3 43 NIL_43    0.000
612 C_1323 -2.996 4.741 9.142 C.3 43 NIL_43    0.000
613 C_1319 -3.079 6.018 8.288 C.2 43 NIL_43    0.000
614 NH -2.416 3.685 8.266 N.am 43 NIL_43    0.000
615 O -3.259 7.091 8.828 O.2 43 NIL_43    0.000
616 H_1323 -4.040 4.445 9.273 H 43 NIL_43    0.000
617 H_13351 -1.539 5.535 10.639 H 43 NIL_43    0.000
618 H_13352 -1.900 3.850 10.822 H 43 NIL_43    0.000
619 H_13431 -3.515 6.159 12.017 H 43 NIL_43    0.000
620 H_13432 -4.173 4.536 11.909 H 43 NIL_43    0.000
621 HH -2.159 2.842 8.758 H 43 NIL_43    0.000
622 HH -1.741 4.978 13.539 H 43 NIL_43    0.000
623 C_3520 6.275 -4.500 -12.003 C.3 44 NIL_44    0.000
624 C_3007 6.561 -3.416 -10.953 C.3 44 NIL_44    0.000
625 C_3006 5.450 -3.401 -9.893 C.3 44 NIL_44    0.000
626 H_30061 4.487 -3.246 -10.385 H 44 NIL_44    0.000
627 H_30062 5.429 -4.362 -9.374 H 44 NIL_44    0.000
628 H_30071 7.524 -3.610 -10.475 H 44 NIL_44    0.000
629 H_30072 6.617 -2.441 -11.442 H 44 NIL_44    0.000
630 H_35201 6.221 -5.483 -11.529 H 44 NIL_44    0.000
631 H_35202 7.066 -4.518 -12.756 H 44 NIL_44    0.000
632 H_35203 5.324 -4.300 -12.502 H 44 NIL_44    0.000
633 C_3516 9.208 -3.694 -0.451 C.3 45 NIL_45    0.000
634 C_3011 8.618 -2.834 0.676 C.3 45 NIL_45    0.000
635 C_3010 7.328 -2.148 0.206 C.3 45 NIL_45    0.000
636 H_30101 7.545 -1.530 -0.668 H 45 NIL_45    0.000
637 H_30102 6.594 -2.908 -0.075 H 45 NIL_45    0.000
638 H_30111 8.408 -3.461 1.545 H 45 NIL_45    0.000
639 H_30112 9.347 -2.078 0.976 H 45 NIL_45    0.000
640 H_35161 9.428 -3.076 -1.324 H 45 NIL_45    0.000
641 H_35162 8.500 -4.473 -0.746 H 45 NIL_45    0.000
642 H_35163 10.133 -4.171 -0.120 H 45 NIL_45    0.000
@<TRIPOS>BOND
1 1 2 1 
2 1 3 2 
3 1 4 1 
4 2 139 1 
5 2 5 2 
6 3 41 1 
7 4 7 2 
8 4 40 1 
9 6 3 1 
10 6 39 1 
11 7 8 1 
12 7 38 1 
13 8 6 2 
14 9 8 1 
15 9 36 1 
16 9 37 1 
17 10 9 1 
18 10 42 1 
19 11 12 1 
20 11 10 1 
21 12 14 1 
22 12 35 1 
23 13 11 2 
24 15 12 1 
25 15 33 1 
26 15 34 1 
27 16 17 1 
28 16 14 1 
29 16 31 1 
30 16 32 1 
31 17 15 1 
32 18 17 1 
33 18 20 1 
34 19 17 1 
35 21 19 2 
36 22 20 1 
37 23 22 1 
38 24 23 1 
39 25 23 1 
40 26 23 1 
41 27 22 1 
42 28 22 1 
43 29 20 1 
44 30 20 1 
45 43 44 2 
46 44 45 1 
47 45 46 1 
48 47 45 1 
49 48 49 1 
50 48 46 1 
51 49 47 1 
52 50 49 1 
53 51 49 1 
54 52 48 1 
55 53 48 1 
56 54 47 1 
57 55 47 1 
58 56 45 1 
59 57 50 1 
60 58 59 1 
61 58 46 1 
62 59 61 1 
63 60 58 2 
64 61 64 1 
65 61 72 1 
66 61 73 1 
67 62 59 1 
68 62 65 1 
69 62 70 1 
70 62 71 1 
71 63 59 1 
72 63 44 1 
73 64 65 1 
74 64 69 1 
75 65 458 1 
76 66 63 1 
77 67 64 1 
78 67 463 1 
79 68 67 2 
80 74 75 1 
81 74 87 1 
82 74 88 1 
83 75 77 1 
84 75 78 1 
85 75 86 1 
86 76 74 1 
87 77 288 1 
88 78 293 1 
89 79 76 1 
90 79 77 1 
91 79 84 1 
92 79 85 1 
93 80 76 1 
94 80 491 1 
95 81 76 1 
96 81 492 1 
97 82 78 2 
98 83 80 2 
99 89 90 1 
100 90 92 1 
101 91 89 2 
102 92 95 1 
103 92 128 1 
104 92 129 1 
105 93 90 1 
106 93 96 1 
107 93 126 1 
108 93 127 1 
109 94 90 1 
110 94 97 1 
111 95 96 1 
112 95 125 1 
113 97 123 1 
114 97 124 1 
115 98 95 1 
116 98 101 1 
117 99 97 1 
118 99 121 1 
119 99 122 1 
120 100 98 2 
121 101 103 1 
122 101 130 1 
123 102 99 1 
124 102 118 1 
125 102 119 1 
126 102 120 1 
127 103 116 1 
128 103 117 1 
129 104 105 2 
130 104 103 1 
131 105 107 1 
132 105 115 1 
133 106 104 1 
134 106 114 1 
135 107 109 2 
136 107 113 1 
137 108 106 2 
138 108 109 1 
139 108 112 1 
140 110 14 1 
141 110 109 1 
142 111 110 2 
143 131 132 1 
144 131 172 1 
145 132 134 1 
146 132 170 1 
147 132 171 1 
148 133 135 1 
149 133 136 2 
150 133 131 1 
151 134 137 2 
152 135 139 1 
153 135 169 1 
154 137 141 1 
155 137 168 1 
156 138 134 1 
157 138 167 1 
158 140 135 1 
159 140 165 1 
160 140 166 1 
161 141 164 1 
162 142 138 2 
163 142 163 1 
164 143 144 1 
165 143 139 1 
166 143 161 1 
167 143 162 1 
168 144 140 1 
169 144 146 1 
170 144 147 1 
171 145 141 2 
172 145 142 1 
173 146 149 1 
174 148 96 1 
175 148 145 1 
176 150 147 2 
177 151 148 2 
178 152 149 1 
179 153 152 1 
180 154 153 1 
181 155 153 1 
182 156 153 1 
183 157 152 1 
184 158 152 1 
185 159 149 1 
186 160 149 1 
187 174 175 1 
188 174 173 1 
189 174 178 1 
190 174 179 1 
191 175 223 1 
192 175 176 1 
193 175 177 1 
194 180 173 1 
195 181 173 1 
196 182 173 1 
197 183 184 1 
198 183 185 1 
199 183 191 1 
200 183 192 1 
201 184 189 1 
202 184 190 1 
203 186 185 1 
204 187 185 1 
205 188 185 1 
206 193 194 1 
207 193 207 1 
208 194 19 1 
209 195 193 1 
210 195 205 1 
211 195 206 1 
212 196 193 1 
213 196 18 1 
214 197 198 1 
215 197 194 1 
216 197 203 1 
217 197 204 1 
218 198 195 1 
219 199 196 2 
220 200 198 1 
221 200 625 1 
222 201 198 1 
223 201 202 2 
224 201 535 1 
225 208 209 2 
226 209 146 1 
227 210 211 1 
228 210 209 1 
229 210 222 1 
230 211 147 1 
231 212 210 1 
232 212 220 1 
233 212 221 1 
234 213 214 1 
235 213 211 1 
236 213 218 1 
237 213 219 1 
238 214 212 1 
239 215 214 1 
240 216 214 1 
241 217 216 2 
242 223 224 1 
243 224 225 1 
244 225 228 1 
245 225 236 1 
246 225 237 1 
247 226 224 1 
248 226 229 1 
249 226 234 1 
250 226 235 1 
251 227 224 1 
252 228 229 1 
253 228 231 1 
254 228 233 1 
255 229 256 1 
256 230 227 2 
257 232 231 2 
258 239 238 1 
259 239 240 1 
260 241 240 1 
261 242 240 1 
262 243 240 1 
263 244 239 1 
264 245 239 1 
265 246 238 1 
266 247 238 1 
267 249 248 1 
268 249 262 1 
269 250 253 1 
270 250 248 1 
271 250 260 1 
272 250 261 1 
273 251 249 1 
274 251 258 1 
275 251 259 1 
276 252 249 1 
277 252 254 2 
278 253 251 1 
279 253 256 1 
280 255 253 1 
281 255 231 1 
282 255 184 1 
283 257 256 2 
284 263 428 1 
285 263 271 1 
286 263 272 1 
287 264 263 1 
288 264 265 1 
289 264 269 1 
290 264 270 1 
291 266 265 1 
292 267 265 1 
293 268 265 1 
294 273 274 1 
295 274 278 1 
296 274 286 1 
297 274 287 1 
298 275 273 1 
299 275 279 1 
300 275 284 1 
301 275 285 1 
302 276 273 1 
303 276 574 1 
304 276 252 1 
305 277 273 1 
306 277 248 1 
307 278 279 1 
308 278 281 1 
309 278 283 1 
310 279 89 1 
311 280 277 2 
312 281 94 1 
313 282 281 2 
314 288 289 1 
315 289 291 1 
316 290 288 2 
317 291 294 1 
318 291 301 1 
319 291 302 1 
320 292 289 1 
321 292 295 1 
322 292 299 1 
323 292 300 1 
324 293 289 1 
325 294 295 1 
326 294 298 1 
327 295 216 1 
328 296 294 1 
329 296 215 1 
330 297 296 2 
331 303 510 1 
332 304 303 1 
333 304 316 1 
334 305 308 1 
335 305 303 1 
336 305 314 1 
337 305 315 1 
338 306 304 1 
339 306 312 1 
340 306 313 1 
341 307 304 1 
342 307 509 1 
343 308 306 1 
344 308 311 1 
345 309 307 2 
346 310 308 1 
347 310 367 1 
348 310 317 1 
349 318 293 1 
350 318 326 1 
351 318 327 1 
352 319 318 1 
353 319 320 1 
354 319 324 1 
355 319 325 1 
356 321 320 1 
357 322 320 1 
358 323 320 1 
359 328 329 1 
360 328 343 1 
361 329 364 1 
362 330 328 1 
363 330 341 1 
364 330 342 1 
365 331 328 1 
366 331 334 2 
367 331 363 1 
368 332 333 1 
369 332 329 1 
370 332 339 1 
371 332 340 1 
372 333 330 1 
373 333 335 1 
374 333 336 1 
375 335 479 1 
376 336 478 1 
377 337 335 1 
378 338 336 2 
379 344 345 1 
380 344 507 1 
381 345 346 1 
382 346 349 1 
383 347 345 1 
384 347 350 1 
385 347 355 1 
386 347 356 1 
387 348 345 1 
388 348 506 1 
389 349 350 1 
390 351 348 2 
391 352 349 1 
392 352 50 1 
393 353 352 2 
394 354 349 1 
395 357 346 1 
396 358 346 1 
397 359 360 1 
398 359 361 1 
399 360 362 1 
400 362 365 1 
401 363 360 1 
402 364 360 1 
403 365 361 1 
404 366 364 2 
405 367 365 1 
406 368 367 2 
407 369 365 1 
408 370 362 1 
409 371 362 1 
410 372 359 1 
411 373 359 1 
412 375 376 1 
413 375 374 2 
414 376 463 1 
415 376 377 1 
416 376 378 1 
417 380 381 1 
418 380 379 1 
419 380 384 1 
420 380 385 1 
421 381 215 1 
422 381 382 1 
423 381 383 1 
424 386 379 1 
425 387 379 1 
426 388 379 1 
427 389 390 1 
428 390 394 1 
429 391 389 1 
430 391 395 1 
431 392 389 1 
432 393 389 1 
433 394 395 1 
434 396 392 2 
435 397 529 1 
436 397 394 1 
437 397 398 2 
438 399 394 1 
439 400 391 1 
440 401 391 1 
441 402 390 1 
442 403 390 1 
443 404 405 1 
444 404 415 1 
445 405 444 1 
446 406 404 1 
447 406 445 1 
448 406 417 1 
449 407 404 1 
450 407 413 1 
451 407 414 1 
452 408 405 2 
453 409 407 1 
454 409 411 1 
455 409 412 1 
456 410 409 1 
457 410 375 1 
458 410 416 1 
459 418 344 1 
460 418 421 1 
461 418 422 1 
462 419 418 1 
463 419 420 2 
464 419 609 1 
465 423 424 2 
466 425 426 1 
467 425 424 1 
468 426 429 1 
469 426 436 1 
470 426 437 1 
471 427 425 1 
472 427 430 1 
473 427 434 1 
474 427 435 1 
475 428 425 1 
476 429 430 1 
477 429 433 1 
478 430 227 1 
479 431 429 1 
480 431 432 2 
481 431 223 1 
482 438 439 1 
483 438 451 1 
484 438 452 1 
485 439 441 1 
486 439 450 1 
487 440 438 1 
488 441 392 1 
489 442 439 1 
490 442 393 1 
491 443 440 1 
492 443 441 1 
493 443 448 1 
494 443 449 1 
495 444 440 1 
496 444 238 1 
497 445 440 1 
498 446 442 2 
499 447 445 2 
500 453 454 1 
501 453 455 2 
502 454 363 1 
503 454 456 1 
504 454 457 1 
505 458 459 1 
506 459 461 1 
507 460 458 2 
508 461 464 1 
509 462 459 1 
510 462 465 1 
511 463 459 1 
512 464 465 1 
513 466 464 1 
514 466 476 1 
515 467 466 2 
516 468 464 1 
517 469 462 1 
518 470 462 1 
519 471 461 1 
520 472 461 1 
521 473 474 1 
522 474 477 1 
523 475 473 1 
524 475 478 1 
525 476 473 1 
526 477 478 1 
527 479 477 1 
528 480 479 2 
529 481 477 1 
530 482 475 1 
531 483 475 1 
532 484 474 1 
533 485 474 1 
534 486 473 1 
535 487 476 1 
536 488 489 1 
537 488 501 1 
538 488 502 1 
539 489 491 1 
540 489 500 1 
541 490 488 1 
542 492 489 1 
543 493 490 1 
544 493 491 1 
545 493 498 1 
546 493 499 1 
547 494 490 1 
548 495 490 1 
549 496 492 2 
550 497 495 2 
551 503 517 1 
552 503 518 1 
553 504 506 1 
554 504 503 1 
555 504 507 1 
556 504 516 1 
557 505 503 1 
558 506 508 1 
559 508 505 1 
560 508 514 1 
561 508 515 1 
562 509 505 1 
563 510 505 1 
564 511 507 2 
565 512 509 1 
566 513 510 2 
567 519 520 1 
568 519 521 1 
569 522 521 1 
570 523 521 1 
571 524 521 1 
572 525 520 1 
573 526 520 1 
574 527 519 1 
575 528 519 1 
576 529 530 1 
577 529 520 1 
578 530 531 1 
579 531 534 1 
580 531 542 1 
581 531 543 1 
582 532 530 1 
583 532 535 1 
584 532 540 1 
585 532 541 1 
586 533 530 1 
587 533 536 2 
588 533 395 1 
589 534 535 1 
590 534 539 1 
591 537 200 1 
592 537 534 1 
593 538 537 2 
594 544 545 1 
595 545 465 1 
596 546 545 1 
597 547 545 1 
598 548 544 1 
599 549 544 1 
600 550 544 1 
601 551 350 1 
602 551 556 1 
603 551 557 1 
604 552 551 1 
605 552 553 1 
606 552 554 1 
607 552 555 1 
608 558 559 1 
609 558 495 1 
610 558 571 1 
611 559 560 1 
612 559 569 1 
613 560 494 1 
614 561 559 1 
615 561 567 1 
616 561 568 1 
617 562 560 2 
618 563 561 1 
619 563 565 1 
620 563 566 1 
621 564 563 1 
622 564 453 1 
623 564 570 1 
624 573 574 1 
625 573 572 1 
626 573 577 1 
627 573 578 1 
628 574 575 1 
629 574 576 1 
630 579 572 1 
631 580 572 1 
632 581 572 1 
633 582 583 1 
634 583 361 1 
635 584 583 1 
636 585 583 1 
637 586 582 1 
638 587 582 1 
639 588 582 1 
640 589 590 1 
641 589 591 1 
642 589 597 1 
643 589 598 1 
644 590 494 1 
645 590 595 1 
646 590 596 1 
647 592 591 1 
648 593 591 1 
649 594 591 1 
650 599 81 1 
651 599 607 1 
652 599 608 1 
653 600 599 1 
654 600 601 1 
655 600 605 1 
656 600 606 1 
657 602 601 1 
658 603 601 1 
659 604 601 1 
660 609 610 1 
661 609 622 1 
662 610 611 1 
663 610 619 1 
664 610 620 1 
665 611 612 1 
666 611 617 1 
667 611 618 1 
668 612 616 1 
669 613 428 1 
670 613 612 1 
671 613 615 2 
672 614 612 1 
673 614 424 1 
674 614 621 1 
675 624 625 1 
676 624 623 1 
677 626 625 1 
678 627 625 1 
679 628 624 1 
680 629 624 1 
681 630 623 1 
682 631 623 1 
683 632 623 1 
684 634 635 1 
685 634 633 1 
686 635 393 1 
687 636 635 1 
688 637 635 1 
689 638 634 1 
690 639 634 1 
691 640 633 1 
692 641 633 1 
693 642 633 1 
@<TRIPOS>SUBSTRUCTURE
1 NIL_1 1 RESIDUE 1 A NIL 1
2 NIL_2 43 RESIDUE 1 A NIL 1
3 NIL_3 58 RESIDUE 1 A NIL 1
4 NIL_4 74 RESIDUE 1 A NIL 1
5 NIL_5 89 RESIDUE 1 A NIL 1
6 NIL_6 131 RESIDUE 1 A NIL 1
7 NIL_7 173 RESIDUE 1 A NIL 1
8 NIL_8 183 RESIDUE 1 A NIL 1
9 NIL_9 193 RESIDUE 1 A NIL 1
10 NIL_10 208 RESIDUE 1 A NIL 1
11 NIL_11 223 RESIDUE 1 A NIL 1
12 NIL_12 238 RESIDUE 1 A NIL 1
13 NIL_13 248 RESIDUE 1 A NIL 1
14 NIL_14 263 RESIDUE 1 A NIL 1
15 NIL_15 273 RESIDUE 1 A NIL 1
16 NIL_16 288 RESIDUE 1 A NIL 1
17 NIL_17 303 RESIDUE 1 A NIL 1
18 NIL_18 318 RESIDUE 1 A NIL 1
19 NIL_19 328 RESIDUE 1 A NIL 1
20 NIL_20 344 RESIDUE 1 A NIL 1
21 NIL_21 359 RESIDUE 1 A NIL 1
22 NIL_22 374 RESIDUE 1 A NIL 1
23 NIL_23 379 RESIDUE 1 A NIL 1
24 NIL_24 389 RESIDUE 1 A NIL 1
25 NIL_25 404 RESIDUE 1 A NIL 1
26 NIL_26 418 RESIDUE 1 A NIL 1
27 NIL_27 423 RESIDUE 1 A NIL 1
28 NIL_28 438 RESIDUE 1 A NIL 1
29 NIL_29 453 RESIDUE 1 A NIL 1
30 NIL_30 458 RESIDUE 1 A NIL 1
31 NIL_31 473 RESIDUE 1 A NIL 1
32 NIL_32 488 RESIDUE 1 A NIL 1
33 NIL_33 503 RESIDUE 1 A NIL 1
34 NIL_34 519 RESIDUE 1 A NIL 1
35 NIL_35 529 RESIDUE 1 A NIL 1
36 NIL_36 544 RESIDUE 1 A NIL 1
37 NIL_37 551 RESIDUE 1 A NIL 1
38 NIL_38 558 RESIDUE 1 A NIL 1
39 NIL_39 572 RESIDUE 1 A NIL 1
40 NIL_40 582 RESIDUE 1 A NIL 1
41 NIL_41 589 RESIDUE 1 A NIL 1
42 NIL_42 599 RESIDUE 1 A NIL 1
43 NIL_43 609 RESIDUE 1 A NIL 1
44 NIL_44 623 RESIDUE 1 A NIL 1
45 NIL_45 633 RESIDUE 1 A NIL 1
