@<TRIPOS>MOLECULE
NIL
954 1029 84 0 0
POLYMER
CHARGES


@<TRIPOS>ATOM
1 N 2.73786 -5.15635 2.33356 n 1 NIL_1    0.000
2 C_2491 4.111 -5.373 1.961 c3 1 NIL_1    0.000
3 C_2494 1.975 -5.126 1.037 c3 1 NIL_1    0.000
4 C_2492 4.290 -4.788 0.512 c3 1 NIL_1    0.000
5 C_2496 5.097 -4.941 3.053 c 1 NIL_1    0.000
6 C_2493 2.896 -4.721 -0.221 c3 1 NIL_1    0.000
7 O 6.257 -4.736 2.754 o 1 NIL_1    0.000
8 N 2.641 -3.320 -0.767 n 1 NIL_1    0.000
9 C_2505 2.789 -5.729 -1.445 c 1 NIL_1    0.000
10 O 2.493 -6.895 -1.272 o 1 NIL_1    0.000
11 H_24921 4.695 -3.779 0.600 hc 1 NIL_1    0.000
12 H_24922 5.011 -5.383 -0.053 hc 1 NIL_1    0.000
13 H_24941 1.130 -4.448 1.158 h1 1 NIL_1    0.000
14 H_24942 1.560 -6.125 0.886 h1 1 NIL_1    0.000
15 H_2491 4.232 -6.457 1.894 h1 1 NIL_1    0.000
16 C_2534 1.862 -5.649 -17.760 c 2 NIL_2    0.000
17 C_2439 2.811 -5.067 -16.728 c3 2 NIL_2    0.000
18 O 2.032 -5.142 -18.953 oh 2 NIL_2    0.000
19 O 1.038 -6.512 -17.528 o 2 NIL_2    0.000
20 C_2437 2.321 -5.334 -15.179 c3 2 NIL_2    0.000
21 H 2.745 -4.482 -18.892 ho 2 NIL_2    0.000
22 C_2435 3.211 -4.966 -13.911 c 2 NIL_2    0.000
23 NH 0.946 -4.836 -14.936 n 2 NIL_2    0.000
24 O 4.338 -4.539 -14.059 o 2 NIL_2    0.000
25 H_2437 2.261 -6.423 -15.105 h1 2 NIL_2    0.000
26 H_24391 2.908 -3.990 -16.887 hc 2 NIL_2    0.000
27 H_24392 3.802 -5.504 -16.874 hc 2 NIL_2    0.000
28 HH 0.723 -3.924 -15.306 hn 2 NIL_2    0.000
29 N 3.509 2.241 24.328 ne 3 NIL_3    0.000
30 N 3.677 2.050 23.039 n2 3 NIL_3    0.000
31 N 4.885 1.510 22.657 nh 3 NIL_3    0.000
32 C_2878 5.073 0.754 21.190 c3 3 NIL_3    0.000
33 C_2876 5.424 1.355 19.624 c3 3 NIL_3    0.000
34 C_2874 5.409 0.344 18.332 c 3 NIL_3    0.000
35 NH 4.663 2.537 19.106 n 3 NIL_3    0.000
36 O 5.034 -0.797 18.505 o 3 NIL_3    0.000
37 H_2876 6.466 1.681 19.686 h1 3 NIL_3    0.000
38 H_28781 4.140 0.200 21.057 h1 3 NIL_3    0.000
39 H_28782 5.834 -0.010 21.367 h1 3 NIL_3    0.000
40 HH 3.660 2.457 19.188 hn 3 NIL_3    0.000
41 C_1432 -6.782 1.580 6.971 c3 4 NIL_4    0.000
42 N -5.859 0.508 7.205 n 4 NIL_4    0.000
43 C_1433 -7.061 1.670 5.423 c3 4 NIL_4    0.000
44 C_1436 -7.934 1.448 7.967 c 4 NIL_4    0.000
45 C_1435 -5.514 -0.102 5.876 c3 4 NIL_4    0.000
46 C_1434 -6.434 0.444 4.682 c3 4 NIL_4    0.000
47 O -9.077 1.680 7.619 o 4 NIL_4    0.000
48 N -7.559 -0.453 4.211 n 4 NIL_4    0.000
49 C_1445 -5.572 0.835 3.417 c 4 NIL_4    0.000
50 O -4.378 1.034 3.513 o 4 NIL_4    0.000
51 H_14351 -5.601 -1.188 5.939 h1 4 NIL_4    0.000
52 H_14352 -4.463 0.135 5.701 h1 4 NIL_4    0.000
53 H_14331 -8.122 1.794 5.201 hc 4 NIL_4    0.000
54 H_14332 -6.563 2.559 5.044 hc 4 NIL_4    0.000
55 H_1432 -6.262 2.496 7.262 h1 4 NIL_4    0.000
56 N 5.999 0.466 1.518 n 5 NIL_5    0.000
57 C_2954 6.738 -0.726 1.813 c3 5 NIL_5    0.000
58 C_2957 5.782 1.069 2.921 c3 5 NIL_5    0.000
59 C_2955 6.262 -1.238 3.240 c3 5 NIL_5    0.000
60 C_2959 6.793 -1.707 0.631 c 5 NIL_5    0.000
61 C_2956 5.742 -0.027 4.132 c3 5 NIL_5    0.000
62 O 7.127 -2.852 0.862 o 5 NIL_5    0.000
63 C_2960 6.706 0.238 5.396 c 5 NIL_5    0.000
64 N 4.338 -0.242 4.688 n 5 NIL_5    0.000
65 O 7.845 0.609 5.197 o 5 NIL_5    0.000
66 H_29551 5.461 -1.966 3.102 hc 5 NIL_5    0.000
67 H_29552 7.082 -1.761 3.736 hc 5 NIL_5    0.000
68 H_29571 4.878 1.685 2.921 h1 5 NIL_5    0.000
69 H_29572 6.624 1.740 3.108 h1 5 NIL_5    0.000
70 H_2954 7.774 -0.394 1.931 h1 5 NIL_5    0.000
71 C_110 -0.386 -4.808 29.626 c3 6 NIL_6    0.000
72 C_109 -1.382 -4.012 30.583 c3 6 NIL_6    0.000
73 C_111 -1.273 -6.105 29.682 c3 6 NIL_6    0.000
74 N 0.034 -4.176 28.186 n 6 NIL_6    0.000
75 C_137 0.857 -4.955 30.588 c 6 NIL_6    0.000
76 C_108 -1.966 -4.901 31.791 c3 6 NIL_6    0.000
77 N -2.207 -6.083 30.904 n3 6 NIL_6    0.000
78 O 1.033 -5.936 31.286 o 6 NIL_6    0.000
79 C_113 -3.121 -4.294 32.787 c 6 NIL_6    0.000
80 O -4.031 -4.891 33.325 o 6 NIL_6    0.000
81 H_108 -1.130 -5.134 32.456 h1 6 NIL_6    0.000
82 H_1111 -1.895 -6.158 28.785 h1 6 NIL_6    0.000
83 H_1112 -0.631 -6.990 29.697 h1 6 NIL_6    0.000
84 H_1091 -2.224 -3.746 29.949 hc 6 NIL_6    0.000
85 H_1092 -0.910 -3.118 30.988 hc 6 NIL_6    0.000
86 O 7.269 3.181 -9.521 o 7 NIL_7    0.000
87 C_2939 6.623 2.181 -9.763 c 7 NIL_7    0.000
88 C_2935 5.812 1.467 -8.665 c3 7 NIL_7    0.000
89 N 5.737 0.052 -8.942 n 7 NIL_7    0.000
90 C_2936 6.169 1.677 -7.128 c3 7 NIL_7    0.000
91 C_2938 5.653 -0.614 -7.567 c3 7 NIL_7    0.000
92 C_2937 6.162 0.309 -6.325 c3 7 NIL_7    0.000
93 N 7.564 0.015 -5.805 n 7 NIL_7    0.000
94 C_2948 5.209 0.285 -5.029 c 7 NIL_7    0.000
95 O 4.011 0.129 -5.161 o 7 NIL_7    0.000
96 H_29381 6.189 -1.563 -7.593 h1 7 NIL_7    0.000
97 H_29382 4.599 -0.854 -7.410 h1 7 NIL_7    0.000
98 H_29361 7.142 2.166 -7.035 hc 7 NIL_7    0.000
99 H_29362 5.436 2.359 -6.693 hc 7 NIL_7    0.000
100 H_2935 4.794 1.844 -8.802 h1 7 NIL_7    0.000
101 C_2841 5.610 -0.448 -10.253 c 8 NIL_8    0.000
102 C_2829 5.839 0.492 -11.534 c3 8 NIL_8    0.000
103 O 5.357 -1.627 -10.406 o 8 NIL_8    0.000
104 C_2828 4.514 1.008 -12.182 c3 8 NIL_8    0.000
105 C_2830 6.406 -0.186 -12.906 c3 8 NIL_8    0.000
106 NH 6.628 1.662 -11.040 n 8 NIL_8    0.000
107 C_2827 4.706 1.282 -13.732 c3 8 NIL_8    0.000
108 N 5.906 0.532 -14.184 n3 8 NIL_8    0.000
109 C_2832 4.841 2.767 -14.034 c 8 NIL_8    0.000
110 O 5.784 3.409 -13.608 o 8 NIL_8    0.000
111 H_2827 3.824 0.914 -14.262 h1 8 NIL_8    0.000
112 H_28301 7.498 -0.217 -12.893 h1 8 NIL_8    0.000
113 H_28302 6.038 -1.215 -12.949 h1 8 NIL_8    0.000
114 H_28281 4.127 1.889 -11.663 hc 8 NIL_8    0.000
115 H_28282 3.757 0.227 -12.077 hc 8 NIL_8    0.000
116 HH 7.176 2.145 -11.736 hn 8 NIL_8    0.000
117 O 3.331 6.823 -13.941 o 9 NIL_9    0.000
118 C_2917 3.482 5.622 -13.850 c 9 NIL_9    0.000
119 C_2919 3.831 4.772 -15.153 c3 9 NIL_9    0.000
120 NH 3.879 3.329 -14.819 n 9 NIL_9    0.000
121 C_2921 3.208 5.076 -16.643 c3 9 NIL_9    0.000
122 C_3016 3.906 4.254 -17.708 c 9 NIL_9    0.000
123 O 3.132 3.365 -18.274 oh 9 NIL_9    0.000
124 O 5.087 4.363 -17.972 o 9 NIL_9    0.000
125 H 2.247 3.454 -17.877 ho 9 NIL_9    0.000
126 H_29211 2.136 4.861 -16.633 hc 9 NIL_9    0.000
127 H_29212 3.319 6.136 -16.881 hc 9 NIL_9    0.000
128 H_2919 4.882 5.045 -15.288 h1 9 NIL_9    0.000
129 HH 3.130 2.749 -15.165 hn 9 NIL_9    0.000
130 O -5.735 -6.028 0.850 o 10 NIL_10    0.000
131 C_2477 -4.569 -5.981 0.507 c 10 NIL_10    0.000
132 C_2472 -3.481 -6.168 1.580 c3 10 NIL_10    0.000
133 N -2.254 -5.533 1.196 n 10 NIL_10    0.000
134 C_2473 -3.768 -5.830 3.114 c3 10 NIL_10    0.000
135 C_2475 -1.522 -5.376 2.524 c3 10 NIL_10    0.000
136 C_2474 -2.470 -5.282 3.854 c3 10 NIL_10    0.000
137 C_2478 -1.971 -6.125 5.141 c 10 NIL_10    0.000
138 N -2.748 -3.899 4.439 n 10 NIL_10    0.000
139 O -1.226 -7.073 4.997 o 10 NIL_10    0.000
140 H_24751 -0.812 -4.558 2.441 h1 10 NIL_10    0.000
141 H_24752 -0.920 -6.285 2.616 h1 10 NIL_10    0.000
142 H_24731 -4.563 -5.083 3.168 hc 10 NIL_10    0.000
143 H_24732 -4.143 -6.722 3.619 hc 10 NIL_10    0.000
144 H_2472 -3.267 -7.239 1.543 h1 10 NIL_10    0.000
145 C_272 2.388 2.496 28.412 c 11 NIL_11    0.000
146 C_267 1.733 2.789 29.842 c3 11 NIL_11    0.000
147 O 1.719 2.621 27.406 o 11 NIL_11    0.000
148 N 2.611 3.438 30.776 n 11 NIL_11    0.000
149 C_268 0.340 3.505 30.090 c3 11 NIL_11    0.000
150 C_270 1.782 4.111 31.872 c3 11 NIL_11    0.000
151 C.fa 0.270 4.387 31.455 c3 11 NIL_11    0.000
152 NH -0.901 4.246 32.558 n 11 NIL_11    0.000
153 H.fa 0.228 5.431 31.130 h1 11 NIL_11    0.000
154 H_2701 2.255 5.053 32.160 h1 11 NIL_11    0.000
155 H_2702 1.786 3.448 32.741 h1 11 NIL_11    0.000
156 H_2681 -0.363 2.681 30.098 hc 11 NIL_11    0.000
157 H_2682 0.104 4.147 29.237 hc 11 NIL_11    0.000
158 H_267 1.591 1.782 30.243 h1 11 NIL_11    0.000
159 HH -1.062 3.253 32.646 hn 11 NIL_11    0.000
160 C_767 -1.284 -5.014 23.901 c2 12 NIL_12    0.000
161 C_766 -0.566 -4.526 24.996 c2 12 NIL_12    0.000
162 C_2285 -0.619 -4.635 26.716 c3 12 NIL_12    0.000
163 H_22851 -1.662 -4.359 26.890 h1 12 NIL_12    0.000
164 H_22852 -0.604 -5.721 26.839 h1 12 NIL_12    0.000
165 H_767 -2.152 -5.657 23.995 h4 12 NIL_12    0.000
166 C_2521 -4.297 -7.718 -6.977 c3 13 NIL_13    0.000
167 C_2522 -5.807 -7.504 -6.749 c3 13 NIL_13    0.000
168 H_25221 -6.072 -6.446 -6.795 hc 13 NIL_13    0.000
169 H_25222 -6.103 -7.886 -5.769 hc 13 NIL_13    0.000
170 H_25223 -6.382 -8.035 -7.511 hc 13 NIL_13    0.000
171 H_25211 -4.077 -8.785 -6.881 h1 13 NIL_13    0.000
172 H_25212 -4.044 -7.444 -8.003 h1 13 NIL_13    0.000
173 C_259 4.470 2.060 29.752 c3 14 NIL_14    0.000
174 C_258 4.291 0.790 30.694 c3 14 NIL_14    0.000
175 C_260 6.028 1.918 29.816 c3 14 NIL_14    0.000
176 N 3.732 2.091 28.307 n 14 NIL_14    0.000
177 C_271 3.961 3.212 30.703 c 14 NIL_14    0.000
178 C_257 5.312 0.747 31.933 c3 14 NIL_14    0.000
179 N 6.463 1.344 31.173 n3 14 NIL_14    0.000
180 O 4.713 3.863 31.402 o 14 NIL_14    0.000
181 C_262 5.386 -0.584 32.889 c 14 NIL_14    0.000
182 O 6.349 -1.069 33.447 o 14 NIL_14    0.000
183 H_257 4.970 1.518 32.628 h1 14 NIL_14    0.000
184 H_2601 6.329 1.216 29.033 h1 14 NIL_14    0.000
185 H_2602 6.521 2.876 29.624 h1 14 NIL_14    0.000
186 H_2581 4.527 -0.064 30.064 hc 14 NIL_14    0.000
187 H_2582 3.270 0.726 31.067 hc 14 NIL_14    0.000
188 O -4.765 7.747 -9.730 o 15 NIL_15    0.000
189 C_1307 -4.306 6.640 -9.926 c 15 NIL_15    0.000
190 C_1302 -4.062 5.676 -8.762 c3 15 NIL_15    0.000
191 N -3.071 4.672 -9.068 n 15 NIL_15    0.000
192 C_1303 -3.707 6.280 -7.346 c3 15 NIL_15    0.000
193 C_1305 -2.727 4.125 -7.675 c3 15 NIL_15    0.000
194 C_1304 -2.910 5.218 -6.484 c3 15 NIL_15    0.000
195 N -1.567 5.729 -5.984 n 15 NIL_15    0.000
196 C_1316 -3.777 4.790 -5.200 c 15 NIL_15    0.000
197 O -4.830 4.208 -5.372 o 15 NIL_15    0.000
198 H_13051 -1.711 3.719 -7.677 h1 15 NIL_15    0.000
199 H_13052 -3.406 3.290 -7.482 h1 15 NIL_15    0.000
200 H_13031 -3.110 7.181 -7.485 hc 15 NIL_15    0.000
201 H_13032 -4.625 6.587 -6.839 hc 15 NIL_15    0.000
202 H_1302 -5.005 5.131 -8.655 h1 15 NIL_15    0.000
203 O 1.040 3.517 2.394 o 16 NIL_16    0.000
204 C_2978 1.758 4.425 2.770 c 16 NIL_16    0.000
205 C_2973 2.366 5.361 1.731 c3 16 NIL_16    0.000
206 N 3.441 6.178 2.222 n 16 NIL_16    0.000
207 C_2974 2.880 4.758 0.379 c3 16 NIL_16    0.000
208 C_2976 4.010 6.785 0.974 c3 16 NIL_16    0.000
209 C_2975 3.889 5.780 -0.276 c3 16 NIL_16    0.000
210 N 5.184 5.098 -0.702 n 16 NIL_16    0.000
211 C_2987 3.236 6.425 -1.561 c 16 NIL_16    0.000
212 O 2.462 7.358 -1.470 o 16 NIL_16    0.000
213 H_29761 5.012 7.157 1.168 h1 16 NIL_16    0.000
214 H_29762 3.408 7.674 0.769 h1 16 NIL_16    0.000
215 H_29741 3.387 3.816 0.590 hc 16 NIL_16    0.000
216 H_29742 2.042 4.539 -0.288 hc 16 NIL_16    0.000
217 H_2973 1.553 6.054 1.491 h1 16 NIL_16    0.000
218 C_133 1.630 -2.814 29.751 c3 17 NIL_17    0.000
219 N 1.735 -3.906 30.677 n 17 NIL_17    0.000
220 C_134 2.948 -1.972 30.031 c3 17 NIL_17    0.000
221 C_138 1.065 -3.223 28.310 c 17 NIL_17    0.000
222 C_136 2.713 -3.541 31.793 c3 17 NIL_17    0.000
223 C.fc 3.722 -2.370 31.408 c3 17 NIL_17    0.000
224 O 1.525 -2.705 27.313 o 17 NIL_17    0.000
225 NH 4.168 -1.301 32.536 n 17 NIL_17    0.000
226 H.fc 4.648 -2.859 31.096 h1 17 NIL_17    0.000
227 H_1361 3.281 -4.429 32.081 h1 17 NIL_17    0.000
228 H_1362 2.119 -3.221 32.655 h1 17 NIL_17    0.000
229 H_1341 2.586 -0.951 30.042 hc 17 NIL_17    0.000
230 H_1342 3.635 -2.077 29.188 hc 17 NIL_17    0.000
231 H_133 0.826 -2.188 30.144 h1 17 NIL_17    0.000
232 HH 3.389 -0.664 32.610 hn 17 NIL_17    0.000
233 C_2356 -1.526 -6.174 -7.378 c3 18 NIL_18    0.000
234 C_2355 -1.626 -5.801 -8.920 c3 18 NIL_18    0.000
235 C_2357 -2.808 -5.712 -6.573 c3 18 NIL_18    0.000
236 N -2.924 -5.229 -9.189 n 18 NIL_18    0.000
237 C_2360 -1.282 -6.836 -10.007 c 18 NIL_18    0.000
238 C_2358 -3.548 -4.966 -7.818 c3 18 NIL_18    0.000
239 N -3.466 -6.960 -6.011 n 18 NIL_18    0.000
240 C_2369 -2.550 -4.768 -5.299 c 18 NIL_18    0.000
241 O -0.621 -7.824 -9.758 o 18 NIL_18    0.000
242 O -2.410 -3.570 -5.441 o 18 NIL_18    0.000
243 H_23581 -4.607 -5.224 -7.857 h1 18 NIL_18    0.000
244 H_23582 -3.498 -3.886 -7.663 h1 18 NIL_18    0.000
245 H_2355 -0.915 -4.994 -9.100 h1 18 NIL_18    0.000
246 H_23561 -1.382 -7.253 -7.273 hc 18 NIL_18    0.000
247 H_23562 -0.641 -5.711 -6.944 hc 18 NIL_18    0.000
248 C_2884 2.905 5.534 15.946 c3 19 NIL_19    0.000
249 C.b 3.882 5.101 14.763 c3 19 NIL_19    0.000
250 N 3.541 5.135 17.258 n3 19 NIL_19    0.000
251 C_2882 4.684 3.970 15.532 c3 19 NIL_19    0.000
252 N 4.763 6.255 14.302 n 19 NIL_19    0.000
253 C_2894 3.107 4.497 13.523 c 19 NIL_19    0.000
254 C.a 4.141 3.823 17.011 c3 19 NIL_19    0.000
255 O 2.214 3.690 13.689 o 19 NIL_19    0.000
256 C_2885 5.140 3.336 18.089 c 19 NIL_19    0.000
257 O 6.325 3.600 18.012 o 19 NIL_19    0.000
258 H.a 3.337 3.081 16.984 h1 19 NIL_19    0.000
259 H_28821 5.745 4.216 15.548 hc 19 NIL_19    0.000
260 H_28822 4.599 3.014 15.014 hc 19 NIL_19    0.000
261 H_28841 2.708 6.610 15.924 h1 19 NIL_19    0.000
262 H_28842 1.951 5.008 15.847 h1 19 NIL_19    0.000
263 O 0.210 -6.574 -13.703 o 20 NIL_20    0.000
264 C_2350 0.021 -5.463 -14.162 c 20 NIL_20    0.000
265 C_2345 -1.276 -4.706 -13.907 c3 20 NIL_20    0.000
266 N -2.446 -5.462 -14.407 n3 20 NIL_20    0.000
267 C_2346 -1.514 -4.419 -12.369 c3 20 NIL_20    0.000
268 C_2348 -3.337 -5.681 -13.162 c3 20 NIL_20    0.000
269 C_2347 -2.523 -5.451 -11.770 c3 20 NIL_20    0.000
270 NH -1.759 -6.638 -11.284 n 20 NIL_20    0.000
271 C_2359 -3.337 -4.916 -10.497 c 20 NIL_20    0.000
272 O -4.355 -4.271 -10.653 o 20 NIL_20    0.000
273 H_23481 -3.777 -6.682 -13.183 h1 20 NIL_20    0.000
274 H_23482 -4.149 -4.950 -13.208 h1 20 NIL_20    0.000
275 H_23461 -0.571 -4.400 -11.815 hc 20 NIL_20    0.000
276 H_23462 -1.950 -3.421 -12.280 hc 20 NIL_20    0.000
277 H_2345 -1.211 -3.749 -14.435 h1 20 NIL_20    0.000
278 HH -1.537 -7.334 -11.980 hn 20 NIL_20    0.000
279 C_3013 8.131 2.921 9.928 c3 21 NIL_21    0.000
280 C_3012 6.631 2.682 9.663 c3 21 NIL_21    0.000
281 H_30121 6.082 3.553 10.027 h1 21 NIL_21    0.000
282 H_30122 6.456 2.634 8.588 h1 21 NIL_21    0.000
283 H_30131 8.473 3.789 9.361 hc 21 NIL_21    0.000
284 H_30132 8.730 2.057 9.635 hc 21 NIL_21    0.000
285 H_30133 8.307 3.112 10.989 hc 21 NIL_21    0.000
286 C_2394 -1.241 -5.150 19.444 c3 22 NIL_22    0.000
287 C_2392 -2.217 -4.971 18.126 c 22 NIL_22    0.000
288 NH 0.160 -4.845 18.987 n 22 NIL_22    0.000
289 C_2396 -1.733 -4.691 21.030 c3 22 NIL_22    0.000
290 O -3.350 -4.574 18.305 o 22 NIL_22    0.000
291 N -0.962 -4.824 22.501 nh 22 NIL_22    0.000
292 N -0.004 -3.924 22.912 n2 22 NIL_22    0.000
293 N 0.232 -3.876 24.204 ne 22 NIL_22    0.000
294 H_23961 -1.962 -3.625 20.939 h1 22 NIL_22    0.000
295 H_23962 -2.700 -5.181 21.175 h1 22 NIL_22    0.000
296 H_2394 -1.222 -6.240 19.525 h1 22 NIL_22    0.000
297 HH 0.825 -5.583 19.165 hn 22 NIL_22    0.000
298 N 2.912 -4.857 7.374 n 23 NIL_23    0.000
299 C_2482 3.023 -6.278 7.134 c3 23 NIL_23    0.000
300 C_2485 2.755 -4.199 6.035 c3 23 NIL_23    0.000
301 C_2483 3.276 -6.513 5.601 c3 23 NIL_23    0.000
302 C_2486 3.970 -6.925 8.144 c 23 NIL_23    0.000
303 C_2484 3.281 -5.135 4.852 c3 23 NIL_23    0.000
304 O 4.617 -7.908 7.834 o 23 NIL_23    0.000
305 N 4.675 -4.813 4.361 n 23 NIL_23    0.000
306 C_2495 2.281 -5.160 3.640 c 23 NIL_23    0.000
307 O 1.088 -5.158 3.853 o 23 NIL_23    0.000
308 H_24831 4.199 -7.064 5.414 hc 23 NIL_23    0.000
309 H_24832 2.470 -7.143 5.217 hc 23 NIL_23    0.000
310 H_24851 3.265 -3.232 6.028 h1 23 NIL_23    0.000
311 H_24852 1.688 -4.003 5.909 h1 23 NIL_23    0.000
312 H_2482 2.040 -6.696 7.369 h1 23 NIL_23    0.000
313 C_2431 2.488 -5.151 -9.900 c3 24 NIL_24    0.000
314 C_2429 2.942 -4.614 -8.428 c3 24 NIL_24    0.000
315 C_2433 3.319 -4.809 -11.244 c3 24 NIL_24    0.000
316 C_2425 1.771 -4.266 -7.479 c 24 NIL_24    0.000
317 NH 3.931 -5.427 -7.665 n 24 NIL_24    0.000
318 NH 2.684 -5.111 -12.615 n 24 NIL_24    0.000
319 O 0.784 -3.700 -7.899 o 24 NIL_24    0.000
320 H_24331 3.549 -3.741 -11.229 h1 24 NIL_24    0.000
321 H_24332 4.270 -5.347 -11.194 h1 24 NIL_24    0.000
322 H_2429 3.427 -3.648 -8.597 h1 24 NIL_24    0.000
323 H_24311 1.486 -4.763 -10.088 hc 24 NIL_24    0.000
324 H_24312 2.366 -6.235 -9.841 hc 24 NIL_24    0.000
325 HH 1.742 -5.468 -12.560 hn 24 NIL_24    0.000
326 HH 4.636 -5.880 -8.227 hn 24 NIL_24    0.000
327 C.d 3.198 5.495 9.743 c3 25 NIL_25    0.000
328 C_2891 4.379 6.260 10.436 c3 25 NIL_25    0.000
329 C_2893 2.863 4.445 10.904 c3 25 NIL_25    0.000
330 N 2.074 6.453 9.435 n 25 NIL_25    0.000
331 C_2904 3.669 4.815 8.403 c 25 NIL_25    0.000
332 C.c 4.573 5.688 11.884 c3 25 NIL_25    0.000
333 N 3.425 4.883 12.229 n 25 NIL_25    0.000
334 O 4.202 3.729 8.401 o 25 NIL_25    0.000
335 C_2895 4.966 6.643 12.996 c 25 NIL_25    0.000
336 O 5.478 7.712 12.718 o 25 NIL_25    0.000
337 H.c 5.420 5.003 11.828 h1 25 NIL_25    0.000
338 H_28931 1.797 4.242 10.975 h1 25 NIL_25    0.000
339 H_28932 3.344 3.492 10.674 h1 25 NIL_25    0.000
340 H_28911 4.168 7.332 10.475 hc 25 NIL_25    0.000
341 H_28912 5.307 6.144 9.870 hc 25 NIL_25    0.000
342 C_2854 5.847 1.544 11.703 c 26 NIL_26    0.000
343 C_2858 5.639 0.305 12.614 c3 26 NIL_26    0.000
344 O 5.808 2.632 12.241 o 26 NIL_26    0.000
345 NH 6.061 -0.872 11.773 n 26 NIL_26    0.000
346 C_2870 6.207 0.476 14.184 c3 26 NIL_26    0.000
347 C_2872 5.401 0.093 15.582 c3 26 NIL_26    0.000
348 NH 5.726 0.740 16.989 n 26 NIL_26    0.000
349 H_28721 4.351 0.334 15.395 h1 26 NIL_26    0.000
350 H_28722 5.454 -0.993 15.697 h1 26 NIL_26    0.000
351 H_28701 6.471 1.525 14.315 hc 26 NIL_26    0.000
352 H_28702 7.170 -0.037 14.224 hc 26 NIL_26    0.000
353 H_2858 4.551 0.229 12.696 h1 26 NIL_26    0.000
354 HH 6.092 1.677 16.906 hn 26 NIL_26    0.000
355 HH 6.192 -1.726 12.294 hn 26 NIL_26    0.000
356 O -0.823 -3.423 11.884 o 27 NIL_27    0.000
357 C_2372 -1.575 -4.234 11.377 c 27 NIL_27    0.000
358 C_2376 -2.458 -5.073 12.353 c3 27 NIL_27    0.000
359 NH -3.009 -6.188 11.515 n 27 NIL_27    0.000
360 C_2388 -1.855 -5.438 13.881 c3 27 NIL_27    0.000
361 C_2390 -2.499 -4.974 15.355 c3 27 NIL_27    0.000
362 NH -1.801 -5.209 16.767 n 27 NIL_27    0.000
363 H_23901 -2.670 -3.897 15.286 h1 27 NIL_27    0.000
364 H_23902 -3.486 -5.439 15.421 h1 27 NIL_27    0.000
365 H_23881 -0.827 -5.086 13.876 hc 27 NIL_27    0.000
366 H_23882 -1.760 -6.526 13.925 hc 27 NIL_27    0.000
367 H_2376 -3.309 -4.413 12.538 h1 27 NIL_27    0.000
368 HH -0.843 -5.508 16.677 hn 27 NIL_27    0.000
369 HH -3.453 -6.918 12.051 hn 27 NIL_27    0.000
370 C_1349 -6.573 -0.182 15.991 c3 28 NIL_28    0.000
371 C.b -5.966 0.665 14.779 c3 28 NIL_28    0.000
372 N -6.143 0.415 17.304 n3 28 NIL_28    0.000
373 C_1347 -4.674 1.160 15.537 c3 28 NIL_28    0.000
374 N -6.721 1.888 14.271 n 28 NIL_28    0.000
375 C_1359 -5.738 -0.273 13.525 c 28 NIL_28    0.000
376 C.a -4.850 1.066 17.106 c3 28 NIL_28    0.000
377 O -5.609 -1.477 13.635 o 28 NIL_28    0.000
378 C_1350 -4.870 2.374 17.910 c 28 NIL_28    0.000
379 O -5.716 3.210 17.644 o 28 NIL_28    0.000
380 H.a -4.053 0.436 17.509 h1 28 NIL_28    0.000
381 H_13471 -4.404 2.177 15.247 hc 28 NIL_28    0.000
382 H_13472 -3.837 0.515 15.258 hc 28 NIL_28    0.000
383 H_13491 -7.659 -0.277 15.927 h1 28 NIL_28    0.000
384 H_13492 -6.142 -1.186 15.966 h1 28 NIL_28    0.000
385 N 3.061 -4.779 12.429 n 29 NIL_29    0.000
386 C.c 1.900 -5.566 12.087 c3 29 NIL_29    0.000
387 C_2411 3.732 -4.388 11.140 c3 29 NIL_29    0.000
388 C_2409 1.922 -5.875 10.547 c3 29 NIL_29    0.000
389 C_2413 1.720 -6.711 13.078 c 29 NIL_29    0.000
390 C.d 3.190 -5.229 9.887 c3 29 NIL_29    0.000
391 O 1.281 -7.782 12.704 o 29 NIL_29    0.000
392 N 4.073 -6.358 9.397 n 29 NIL_29    0.000
393 C_2422 2.851 -4.317 8.644 c 29 NIL_29    0.000
394 O 2.602 -3.133 8.766 o 29 NIL_29    0.000
395 H_24091 1.892 -6.951 10.362 hc 29 NIL_29    0.000
396 H_24092 1.020 -5.466 10.093 hc 29 NIL_29    0.000
397 H_24111 4.812 -4.502 11.250 h1 29 NIL_29    0.000
398 H_24112 3.537 -3.323 10.992 h1 29 NIL_29    0.000
399 H.c 1.039 -4.928 12.272 h1 29 NIL_29    0.000
400 C_2518 2.450 -0.860 0.091 c3 30 NIL_30    0.000
401 C_2517 2.130 -2.362 0.253 c3 30 NIL_30    0.000
402 H_25171 2.562 -2.650 1.209 h1 30 NIL_30    0.000
403 H_25172 1.044 -2.470 0.315 h1 30 NIL_30    0.000
404 H_25181 1.886 -0.408 -0.725 hc 30 NIL_30    0.000
405 H_25182 3.517 -0.716 -0.074 hc 30 NIL_30    0.000
406 H_25183 2.168 -0.318 0.993 hc 30 NIL_30    0.000
407 C_3011 2.490 -1.626 3.642 c3 31 NIL_31    0.000
408 C_3010 3.269 -0.299 3.658 c3 31 NIL_31    0.000
409 H_30101 3.676 -0.163 2.658 h1 31 NIL_31    0.000
410 H_30102 2.575 0.519 3.839 h1 31 NIL_31    0.000
411 H_30111 2.030 -1.844 4.605 hc 31 NIL_31    0.000
412 H_30112 3.153 -2.448 3.372 hc 31 NIL_31    0.000
413 H_30113 1.678 -1.574 2.918 hc 31 NIL_31    0.000
414 O -3.802 -7.215 9.712 o 32 NIL_32    0.000
415 C_2373 -3.138 -6.287 10.131 c 32 NIL_32    0.000
416 C_2367 -2.474 -5.300 9.106 c3 32 NIL_32    0.000
417 C_2366 -3.566 -4.550 8.239 c3 32 NIL_32    0.000
418 C_2368 -1.779 -6.092 7.852 c3 32 NIL_32    0.000
419 N -1.626 -4.347 9.970 n 32 NIL_32    0.000
420 C_2365 -3.419 -4.838 6.680 c3 32 NIL_32    0.000
421 N -2.318 -5.734 6.455 n 32 NIL_32    0.000
422 C_2370 -3.275 -3.668 5.703 c 32 NIL_32    0.000
423 O -3.566 -2.549 6.074 o 32 NIL_32    0.000
424 H_2365 -4.318 -5.368 6.352 h1 32 NIL_32    0.000
425 H_23681 -0.697 -5.935 7.862 h1 32 NIL_32    0.000
426 H_23682 -1.941 -7.165 7.982 h1 32 NIL_32    0.000
427 H_23661 -3.573 -3.484 8.448 hc 32 NIL_32    0.000
428 H_23662 -4.558 -4.897 8.540 hc 32 NIL_32    0.000
429 O 5.154 1.972 0.072 o 33 NIL_33    0.000
430 C_2958 5.755 0.929 0.207 c 33 NIL_33    0.000
431 C_2946 6.169 0.105 -1.115 c3 33 NIL_33    0.000
432 C_2945 7.382 0.735 -1.913 c3 33 NIL_33    0.000
433 C_2947 5.105 0.204 -2.339 c3 33 NIL_33    0.000
434 N 6.519 -1.304 -0.669 n 33 NIL_33    0.000
435 C_2944 7.065 0.853 -3.473 c3 33 NIL_33    0.000
436 N 5.730 0.381 -3.726 n 33 NIL_33    0.000
437 C_2949 8.031 0.293 -4.526 c 33 NIL_33    0.000
438 O 9.193 0.096 -4.224 o 33 NIL_33    0.000
439 H_2944 7.044 1.920 -3.705 h1 33 NIL_33    0.000
440 H_29471 4.483 -0.688 -2.345 h1 33 NIL_33    0.000
441 H_29472 4.446 1.060 -2.176 h1 33 NIL_33    0.000
442 H_29451 8.307 0.189 -1.728 hc 33 NIL_33    0.000
443 H_29452 7.565 1.740 -1.529 hc 33 NIL_33    0.000
444 O 6.377 3.887 -2.200 o 34 NIL_34    0.000
445 C_2905 5.376 4.525 -1.942 c 34 NIL_34    0.000
446 C.e 4.348 4.751 -3.046 c3 34 NIL_34    0.000
447 N 3.566 5.949 -2.820 n 34 NIL_34    0.000
448 C_2901 4.915 4.853 -4.509 c3 34 NIL_34    0.000
449 C_2903 3.280 6.532 -4.180 c3 34 NIL_34    0.000
450 C_2902 3.879 5.654 -5.362 c3 34 NIL_34    0.000
451 NH 4.476 6.506 -6.442 n 34 NIL_34    0.000
452 C_2908 2.874 4.677 -6.013 c 34 NIL_34    0.000
453 O 2.110 4.025 -5.330 o 34 NIL_34    0.000
454 H_29031 3.758 7.516 -4.209 h1 34 NIL_34    0.000
455 H_29032 2.213 6.685 -4.315 h1 34 NIL_34    0.000
456 H_29011 5.861 5.402 -4.488 hc 34 NIL_34    0.000
457 H_29012 5.115 3.864 -4.925 hc 34 NIL_34    0.000
458 H.e 3.656 3.906 -2.993 h1 34 NIL_34    0.000
459 HH 4.955 7.328 -6.106 hn 34 NIL_34    0.000
460 C_1480 -3.561 7.644 9.740 c3 35 NIL_35    0.000
461 C_1481 -2.366 8.618 9.798 c3 35 NIL_35    0.000
462 H_14811 -2.062 8.801 10.830 hc 35 NIL_35    0.000
463 H_14812 -2.649 9.574 9.351 hc 35 NIL_35    0.000
464 H_14813 -1.506 8.232 9.248 hc 35 NIL_35    0.000
465 H_14801 -4.398 8.088 10.284 h1 35 NIL_35    0.000
466 H_14802 -3.876 7.560 8.698 h1 35 NIL_35    0.000
467 C_1323 -3.310 4.755 12.401 c3 36 NIL_36    0.000
468 C_1319 -3.356 6.143 11.713 c 36 NIL_36    0.000
469 NH -2.696 3.842 11.372 n 36 NIL_36    0.000
470 C_1335 -2.777 4.513 13.980 c3 36 NIL_36    0.000
471 O -3.460 7.117 12.434 o 36 NIL_36    0.000
472 C_1337 -3.354 5.126 15.420 c3 36 NIL_36    0.000
473 NH -3.198 4.401 16.830 n 36 NIL_36    0.000
474 H_13371 -2.945 6.134 15.530 h1 36 NIL_36    0.000
475 H_13372 -4.432 5.238 15.278 h1 36 NIL_36    0.000
476 H_13351 -1.706 4.717 13.982 hc 36 NIL_36    0.000
477 H_13352 -2.851 3.432 14.112 hc 36 NIL_36    0.000
478 H_1323 -4.366 4.476 12.415 h1 36 NIL_36    0.000
479 HH -3.303 3.402 16.739 hn 36 NIL_36    0.000
480 HH -2.299 2.997 11.753 hn 36 NIL_36    0.000
481 C_2400 1.516 -4.287 15.601 c3 37 NIL_37    0.000
482 C.a 1.777 -4.136 17.148 c3 37 NIL_37    0.000
483 C.b 2.636 -5.179 14.927 c3 37 NIL_37    0.000
484 N 2.696 -5.248 17.440 n3 37 NIL_37    0.000
485 C_2403 0.516 -3.919 18.031 c 37 NIL_37    0.000
486 C_2402 3.566 -5.323 16.206 c3 37 NIL_37    0.000
487 N 2.080 -6.494 14.392 n 37 NIL_37    0.000
488 C_2412 3.363 -4.437 13.735 c 37 NIL_37    0.000
489 O -0.163 -2.927 17.853 o 37 NIL_37    0.000
490 O 4.221 -3.601 13.941 o 37 NIL_37    0.000
491 H_24021 4.165 -6.236 16.179 h1 37 NIL_37    0.000
492 H_24022 4.263 -4.482 16.236 h1 37 NIL_37    0.000
493 H.a 2.349 -3.212 17.268 h1 37 NIL_37    0.000
494 H_24001 0.541 -4.739 15.457 hc 37 NIL_37    0.000
495 H_24002 1.477 -3.298 15.140 hc 37 NIL_37    0.000
496 C_2463 -2.435 -6.980 -2.196 c3 38 NIL_38    0.000
497 C_2462 -2.354 -6.696 -3.760 c3 38 NIL_38    0.000
498 C_2464 -2.810 -5.679 -1.382 c3 38 NIL_38    0.000
499 N -2.553 -5.291 -3.996 n 38 NIL_38    0.000
500 C_2467 -3.194 -7.504 -4.761 c 38 NIL_38    0.000
501 C_2465 -2.596 -4.640 -2.613 c3 38 NIL_38    0.000
502 N -4.225 -5.795 -0.829 n 38 NIL_38    0.000
503 C_2476 -1.836 -5.410 -0.141 c 38 NIL_38    0.000
504 O -3.618 -8.600 -4.447 o 38 NIL_38    0.000
505 O -0.697 -5.059 -0.363 o 38 NIL_38    0.000
506 H_24651 -3.374 -3.874 -2.598 h1 38 NIL_38    0.000
507 H_24652 -1.640 -4.126 -2.486 h1 38 NIL_38    0.000
508 H_2462 -1.322 -6.903 -4.059 h1 38 NIL_38    0.000
509 H_24631 -3.107 -7.805 -1.964 hc 38 NIL_38    0.000
510 H_24632 -1.446 -7.314 -1.873 hc 38 NIL_38    0.000
511 C_726 -2.741 3.333 30.647 c3 39 NIL_39    0.000
512 C_725 -3.229 4.271 31.861 c3 39 NIL_39    0.000
513 C_727 -3.909 2.884 29.655 c3 39 NIL_39    0.000
514 N -4.097 5.081 30.952 n3 39 NIL_39    0.000
515 C_729 -2.132 4.954 32.873 c 39 NIL_39    0.000
516 C_728 -4.595 4.300 29.729 c3 39 NIL_39    0.000
517 N -3.550 2.226 28.207 n 39 NIL_39    0.000
518 C_738 -4.661 1.856 30.591 c 39 NIL_39    0.000
519 O -2.196 6.034 33.422 o 39 NIL_39    0.000
520 O -5.605 2.176 31.290 o 39 NIL_39    0.000
521 H_7281 -4.334 4.885 28.845 h1 39 NIL_39    0.000
522 H_7282 -5.683 4.190 29.746 h1 39 NIL_39    0.000
523 H_725 -3.861 3.661 32.511 h1 39 NIL_39    0.000
524 H_7261 -2.080 3.936 30.031 hc 39 NIL_39    0.000
525 H_7262 -2.213 2.470 31.050 hc 39 NIL_39    0.000
526 O 2.421 -1.911 -2.543 o 40 NIL_40    0.000
527 C_2423 2.839 -2.956 -2.085 c 40 NIL_40    0.000
528 C.e 3.526 -3.957 -3.002 c3 40 NIL_40    0.000
529 N 2.980 -5.265 -2.743 n 40 NIL_40    0.000
530 C_2419 3.523 -3.672 -4.548 c3 40 NIL_40    0.000
531 C_2421 2.689 -5.895 -4.085 c3 40 NIL_40    0.000
532 C_2420 3.012 -4.932 -5.322 c3 40 NIL_40    0.000
533 NH 1.820 -4.565 -6.136 n 40 NIL_40    0.000
534 C_2426 4.082 -5.504 -6.294 c 40 NIL_40    0.000
535 O 5.070 -6.061 -5.859 o 40 NIL_40    0.000
536 H_24211 1.630 -6.168 -4.113 h1 40 NIL_40    0.000
537 H_24212 3.273 -6.815 -4.168 h1 40 NIL_40    0.000
538 H_24191 2.898 -2.809 -4.787 hc 40 NIL_40    0.000
539 H_24192 4.536 -3.411 -4.864 hc 40 NIL_40    0.000
540 H.e 4.567 -3.993 -2.678 h1 40 NIL_40    0.000
541 HH 0.987 -4.371 -5.600 hn 40 NIL_40    0.000
542 C_1370 -6.029 -1.411 -2.139 c 41 NIL_41    0.000
543 C.e -6.646 -0.524 -3.217 c3 41 NIL_41    0.000
544 O -5.593 -2.505 -2.440 o 41 NIL_41    0.000
545 N -6.464 0.875 -2.914 n 41 NIL_41    0.000
546 C_1366 -6.183 -0.768 -4.695 c3 41 NIL_41    0.000
547 C_1368 -6.253 1.578 -4.229 c3 41 NIL_41    0.000
548 C_1367 -6.255 0.584 -5.479 c3 41 NIL_41    0.000
549 NH -5.079 0.756 -6.390 n 41 NIL_41    0.000
550 C_1373 -7.537 0.687 -6.345 c 41 NIL_41    0.000
551 O -8.623 0.841 -5.821 o 41 NIL_41    0.000
552 H_13681 -5.276 2.064 -4.165 h1 41 NIL_41    0.000
553 H_13682 -7.017 2.351 -4.355 h1 41 NIL_41    0.000
554 H_13661 -5.148 -1.120 -4.686 hc 41 NIL_41    0.000
555 H_13662 -6.789 -1.543 -5.173 hc 41 NIL_41    0.000
556 H.e -7.723 -0.710 -3.169 h1 41 NIL_41    0.000
557 HH -4.209 0.952 -5.918 hn 41 NIL_41    0.000
558 C_2526 -5.304 -5.783 -1.863 c3 42 NIL_42    0.000
559 C_2527 -5.947 -7.159 -2.148 c3 42 NIL_42    0.000
560 H_25271 -6.718 -7.058 -2.915 hc 42 NIL_42    0.000
561 H_25272 -6.417 -7.570 -1.252 hc 42 NIL_42    0.000
562 H_25273 -5.216 -7.879 -2.510 hc 42 NIL_42    0.000
563 H_25261 -4.945 -5.388 -2.811 h1 42 NIL_42    0.000
564 H_25262 -6.097 -5.115 -1.537 h1 42 NIL_42    0.000
565 C_1455 -6.478 1.387 -1.625 c 43 NIL_43    0.000
566 C_1443 -6.404 0.424 -0.375 c3 43 NIL_43    0.000
567 O -6.514 2.591 -1.475 o 43 NIL_43    0.000
568 C_1442 -7.771 0.343 0.392 c3 43 NIL_43    0.000
569 C_1444 -5.507 1.031 0.803 c3 43 NIL_43    0.000
570 N -5.977 -0.953 -0.840 n 43 NIL_43    0.000
571 C_1441 -7.547 0.583 1.932 c3 43 NIL_43    0.000
572 N -6.143 0.841 2.157 n 43 NIL_43    0.000
573 C_1446 -8.073 -0.452 2.928 c 43 NIL_43    0.000
574 O -8.932 -1.243 2.589 o 43 NIL_43    0.000
575 H_1441 -8.082 1.502 2.194 h1 43 NIL_43    0.000
576 H_14441 -4.511 0.583 0.797 h1 43 NIL_43    0.000
577 H_14442 -5.376 2.105 0.658 h1 43 NIL_43    0.000
578 H_14421 -8.272 -0.604 0.198 hc 43 NIL_43    0.000
579 H_14422 -8.448 1.114 0.020 hc 43 NIL_43    0.000
580 O -4.410 -0.481 8.585 o 44 NIL_44    0.000
581 C_1369 -5.403 0.212 8.475 c 44 NIL_44    0.000
582 C.d -6.230 0.695 9.739 c3 44 NIL_44    0.000
583 C_1356 -5.636 1.935 10.495 c3 44 NIL_44    0.000
584 C_1358 -6.085 -0.368 10.927 c3 44 NIL_44    0.000
585 N -7.633 1.043 9.258 n 44 NIL_44    0.000
586 C.c -5.570 1.675 12.050 c3 44 NIL_44    0.000
587 N -5.799 0.273 12.259 n 44 NIL_44    0.000
588 C_1360 -6.462 2.455 13.026 c 44 NIL_44    0.000
589 O -6.937 3.513 12.669 o 44 NIL_44    0.000
590 H.c -4.549 1.887 12.378 h1 44 NIL_44    0.000
591 H_13581 -6.980 -0.987 10.998 h1 44 NIL_44    0.000
592 H_13582 -5.241 -1.033 10.728 h1 44 NIL_44    0.000
593 H_13561 -6.171 2.858 10.269 hc 44 NIL_44    0.000
594 H_13562 -4.614 2.067 10.143 hc 44 NIL_44    0.000
595 O -3.944 0.739 -8.312 o 45 NIL_45    0.000
596 C_1372 -5.019 0.615 -7.761 c 45 NIL_45    0.000
597 C_1376 -6.295 0.321 -8.581 c3 45 NIL_45    0.000
598 NH -7.472 0.649 -7.723 n 45 NIL_45    0.000
599 C_1378 -6.343 0.914 -10.099 c3 45 NIL_45    0.000
600 C_1380 -6.238 -0.046 -11.398 c3 45 NIL_45    0.000
601 NH -6.182 0.591 -12.798 n 45 NIL_45    0.000
602 H_13801 -5.338 -0.657 -11.291 h1 45 NIL_45    0.000
603 H_13802 -7.093 -0.727 -11.382 h1 45 NIL_45    0.000
604 H_13781 -5.569 1.678 -10.190 hc 45 NIL_45    0.000
605 H_13782 -7.286 1.457 -10.206 hc 45 NIL_45    0.000
606 H_1376 -6.306 -0.768 -8.674 h1 45 NIL_45    0.000
607 HH -6.036 1.589 -12.791 hn 45 NIL_45    0.000
608 HH -8.340 0.783 -8.221 hn 45 NIL_45    0.000
609 C_1428 -2.462 5.550 5.230 c 46 NIL_46    0.000
610 C_1424 -3.388 5.234 3.957 c3 46 NIL_46    0.000
611 O -1.392 6.096 5.063 o 46 NIL_46    0.000
612 C_1423 -2.932 3.946 3.164 c3 46 NIL_46    0.000
613 C_1425 -3.265 6.240 2.678 c3 46 NIL_46    0.000
614 N -4.802 5.088 4.497 n 46 NIL_46    0.000
615 C_1422 -2.438 4.311 1.706 c3 46 NIL_46    0.000
616 N -3.109 5.524 1.328 n 46 NIL_46    0.000
617 C_1427 -2.520 3.230 0.624 c 46 NIL_46    0.000
618 O -2.382 2.071 0.971 o 46 NIL_46    0.000
619 H_1422 -1.375 4.560 1.770 h1 46 NIL_46    0.000
620 H_14251 -4.103 6.933 2.632 h1 46 NIL_46    0.000
621 H_14252 -2.367 6.852 2.814 h1 46 NIL_46    0.000
622 H_14231 -3.799 3.304 3.049 hc 46 NIL_46    0.000
623 H_14232 -2.168 3.385 3.708 hc 46 NIL_46    0.000
624 C_1386 -5.971 0.293 -16.877 c3 47 NIL_47    0.000
625 C_1384 -6.105 0.903 -15.361 c3 47 NIL_47    0.000
626 C_2149 -4.715 -0.540 -17.062 c 47 NIL_47    0.000
627 C_1382 -6.263 -0.005 -14.068 c 47 NIL_47    0.000
628 NH -5.051 1.895 -15.064 n 47 NIL_47    0.000
629 O -4.574 -0.969 -18.288 oh 47 NIL_47    0.000
630 O -3.910 -0.787 -16.187 o 47 NIL_47    0.000
631 O -6.432 -1.204 -14.170 o 47 NIL_47    0.000
632 H -3.746 -1.482 -18.323 ho 47 NIL_47    0.000
633 H_1384 -7.050 1.452 -15.376 h1 47 NIL_47    0.000
634 H_13861 -6.846 -0.319 -17.104 hc 47 NIL_47    0.000
635 H_13862 -5.960 1.119 -17.592 hc 47 NIL_47    0.000
636 HH -4.118 1.519 -14.977 hn 47 NIL_47    0.000
637 C_2849 6.027 0.240 9.405 c3 48 NIL_48    0.000
638 C_2848 4.687 0.147 8.570 c3 48 NIL_48    0.000
639 C_2850 7.008 0.185 8.087 c3 48 NIL_48    0.000
640 N 6.122 1.461 10.329 n 48 NIL_48    0.000
641 C_2855 6.140 -0.985 10.381 c 48 NIL_48    0.000
642 C_2847 5.000 -0.434 7.129 c3 48 NIL_48    0.000
643 N 6.288 0.061 6.736 n 48 NIL_48    0.000
644 O 6.317 -2.095 9.922 o 48 NIL_48    0.000
645 C_2852 3.958 -0.283 6.024 c 48 NIL_48    0.000
646 O 2.789 -0.228 6.355 o 48 NIL_48    0.000
647 H_2847 5.119 -1.516 7.239 h1 48 NIL_48    0.000
648 H_28501 7.671 1.045 8.024 h1 48 NIL_48    0.000
649 H_28502 7.657 -0.689 8.183 h1 48 NIL_48    0.000
650 H_28481 4.262 1.145 8.456 hc 48 NIL_48    0.000
651 H_28482 3.941 -0.464 9.082 hc 48 NIL_48    0.000
652 C_2999 6.367 5.240 0.206 c3 49 NIL_49    0.000
653 C_3000 6.361 4.415 1.510 c3 49 NIL_49    0.000
654 H_30001 6.756 3.415 1.328 hc 49 NIL_49    0.000
655 H_30002 5.366 4.324 1.943 hc 49 NIL_49    0.000
656 H_30003 7.012 4.887 2.248 hc 49 NIL_49    0.000
657 H_29991 6.537 6.290 0.437 h1 49 NIL_49    0.000
658 H_29992 7.276 4.954 -0.327 h1 49 NIL_49    0.000
659 O -3.906 6.972 -0.205 o 50 NIL_50    0.000
660 C_1426 -3.377 5.895 -0.005 c 50 NIL_50    0.000
661 C_1414 -3.019 4.949 -1.257 c3 50 NIL_50    0.000
662 C_1413 -1.792 5.534 -2.071 c3 50 NIL_50    0.000
663 C_1415 -4.062 4.953 -2.511 c3 50 NIL_50    0.000
664 N -2.736 3.555 -0.706 n 50 NIL_50    0.000
665 C_1412 -2.228 5.871 -3.556 c3 50 NIL_50    0.000
666 N -3.382 5.084 -3.880 n 50 NIL_50    0.000
667 C_1417 -1.181 5.843 -4.662 c 50 NIL_50    0.000
668 O -0.012 5.955 -4.356 o 50 NIL_50    0.000
669 H_1412 -2.581 6.908 -3.557 h1 50 NIL_50    0.000
670 H_14151 -4.707 4.074 -2.499 h1 50 NIL_50    0.000
671 H_14152 -4.716 5.823 -2.406 h1 50 NIL_50    0.000
672 H_14131 -0.972 4.814 -2.083 hc 50 NIL_50    0.000
673 H_14132 -1.404 6.440 -1.596 hc 50 NIL_50    0.000
674 C_3008 6.634 -2.312 -1.765 c3 51 NIL_51    0.000
675 C_3009 8.081 -2.718 -2.119 c3 51 NIL_51    0.000
676 H_30091 8.589 -3.156 -1.259 hc 51 NIL_51    0.000
677 H_30092 8.664 -1.865 -2.462 hc 51 NIL_51    0.000
678 H_30093 8.075 -3.463 -2.919 hc 51 NIL_51    0.000
679 H_30081 6.162 -1.976 -2.687 h1 51 NIL_51    0.000
680 H_30082 6.101 -3.211 -1.451 h1 51 NIL_51    0.000
681 C_1312 -4.092 4.585 6.877 c3 52 NIL_52    0.000
682 N -2.865 5.266 6.550 n 52 NIL_52    0.000
683 C_1313 -4.451 4.918 8.385 c3 52 NIL_52    0.000
684 C_1317 -5.163 4.842 5.812 c 52 NIL_52    0.000
685 C_1315 -2.221 5.567 7.911 c3 52 NIL_52    0.000
686 C_1314 -3.140 5.218 9.217 c3 52 NIL_52    0.000
687 O -6.330 4.852 6.153 o 52 NIL_52    0.000
688 N -3.295 6.299 10.310 n 52 NIL_52    0.000
689 C_1320 -2.670 3.947 9.987 c 52 NIL_52    0.000
690 O -2.236 2.995 9.365 o 52 NIL_52    0.000
691 H_13151 -1.968 6.624 7.899 h1 52 NIL_52    0.000
692 H_13152 -1.279 5.013 7.970 h1 52 NIL_52    0.000
693 H_13131 -5.099 5.794 8.394 hc 52 NIL_52    0.000
694 H_13132 -5.024 4.106 8.825 hc 52 NIL_52    0.000
695 H_1312 -3.872 3.514 6.813 h1 52 NIL_52    0.000
696 C_2530 -0.762 -3.440 9.161 c3 53 NIL_53    0.000
697 C_2531 -1.219 -1.964 9.093 c3 53 NIL_53    0.000
698 H_25311 -1.136 -1.476 10.067 hc 53 NIL_53    0.000
699 H_25312 -2.246 -1.869 8.752 hc 53 NIL_53    0.000
700 H_25313 -0.588 -1.417 8.388 hc 53 NIL_53    0.000
701 H_25301 -0.671 -3.805 8.138 h1 53 NIL_53    0.000
702 H_25302 0.237 -3.445 9.600 h1 53 NIL_53    0.000
703 C_2911 3.718 5.121 -8.414 c3 54 NIL_54    0.000
704 C_2907 4.400 6.359 -7.811 c 54 NIL_54    0.000
705 NH 2.820 4.529 -7.380 n 54 NIL_54    0.000
706 C_2913 3.028 5.212 -9.883 c3 54 NIL_54    0.000
707 O 4.880 7.215 -8.526 o 54 NIL_54    0.000
708 C_2915 3.843 5.602 -11.216 c3 54 NIL_54    0.000
709 NH 3.446 5.017 -12.583 n 54 NIL_54    0.000
710 H_29151 3.864 6.692 -11.299 h1 54 NIL_54    0.000
711 H_29152 4.874 5.277 -11.052 h1 54 NIL_54    0.000
712 H_29131 2.169 5.883 -9.813 hc 54 NIL_54    0.000
713 H_29132 2.607 4.221 -10.071 hc 54 NIL_54    0.000
714 H_2911 4.539 4.405 -8.515 h1 54 NIL_54    0.000
715 HH 3.468 4.008 -12.595 hn 54 NIL_54    0.000
716 HH 2.118 3.900 -7.738 hn 54 NIL_54    0.000
717 C_1341 -3.738 3.953 19.493 c3 55 NIL_55    0.000
718 C_1339 -3.270 4.867 18.194 c 55 NIL_55    0.000
719 NH -3.974 2.580 18.939 n 55 NIL_55    0.000
720 C_1343 -3.094 4.173 21.072 c3 55 NIL_55    0.000
721 O -3.020 6.040 18.397 o 55 NIL_55    0.000
722 N -3.410 3.461 22.550 nh 55 NIL_55    0.000
723 N -4.613 2.986 23.002 n2 55 NIL_55    0.000
724 N -4.652 2.721 24.293 ne 55 NIL_55    0.000
725 H_13431 -2.016 4.042 20.936 h1 55 NIL_55    0.000
726 H_13432 -3.229 5.240 21.266 h1 55 NIL_55    0.000
727 H_1341 -4.754 4.323 19.647 h1 55 NIL_55    0.000
728 HH -3.286 1.870 19.148 hn 55 NIL_55    0.000
729 O -6.331 3.718 -14.674 o 56 NIL_56    0.000
730 C_1297 -5.267 3.140 -14.567 c 56 NIL_56    0.000
731 C_1292 -4.090 3.714 -13.789 c3 56 NIL_56    0.000
732 N -3.437 4.939 -14.299 n3 56 NIL_56    0.000
733 C_1293 -4.457 4.018 -12.289 c3 56 NIL_56    0.000
734 C_1295 -2.564 5.246 -13.052 c3 56 NIL_56    0.000
735 C_1294 -3.389 4.978 -11.667 c3 56 NIL_56    0.000
736 NH -4.000 6.255 -11.205 n 56 NIL_56    0.000
737 C_1306 -2.721 4.285 -10.380 c 56 NIL_56    0.000
738 O -1.910 3.394 -10.532 o 56 NIL_56    0.000
739 H_12951 -2.202 6.278 -13.088 h1 56 NIL_56    0.000
740 H_12952 -1.695 4.581 -13.071 h1 56 NIL_56    0.000
741 H_12931 -5.442 4.489 -12.240 hc 56 NIL_56    0.000
742 H_12932 -4.520 3.082 -11.732 hc 56 NIL_56    0.000
743 H_1292 -3.324 2.931 -13.778 h1 56 NIL_56    0.000
744 HH -4.197 6.921 -11.937 hn 56 NIL_56    0.000
745 C_734 -3.175 0.138 29.738 c3 57 NIL_57    0.000
746 N -4.187 0.571 30.661 n 57 NIL_57    0.000
747 C_735 -3.081 -1.427 29.995 c3 57 NIL_57    0.000
748 C_739 -3.245 0.856 28.311 c 57 NIL_57    0.000
749 C_737 -4.352 -0.481 31.759 c3 57 NIL_57    0.000
750 C.fb -3.826 -1.930 31.351 c3 57 NIL_57    0.000
751 O -3.018 0.214 27.304 o 57 NIL_57    0.000
752 NH -3.126 -2.872 32.462 n 57 NIL_57    0.000
753 H.fb -4.703 -2.490 31.015 h1 57 NIL_57    0.000
754 H_7371 -5.406 -0.544 32.044 h1 57 NIL_57    0.000
755 H_7372 -3.782 -0.135 32.626 h1 57 NIL_57    0.000
756 H_7351 -2.013 -1.613 30.027 hc 57 NIL_57    0.000
757 H_7352 -3.493 -1.963 29.136 hc 57 NIL_57    0.000
758 H_734 -2.240 0.530 30.144 h1 57 NIL_57    0.000
759 HH -2.186 -2.515 32.555 hn 57 NIL_57    0.000
760 C_2997 1.391 7.017 10.632 c3 58 NIL_58    0.000
761 C_2998 0.039 6.364 10.970 c3 58 NIL_58    0.000
762 H_29981 -0.556 6.251 10.067 hc 58 NIL_58    0.000
763 H_29982 -0.509 6.990 11.677 hc 58 NIL_58    0.000
764 H_29983 0.155 5.383 11.426 hc 58 NIL_58    0.000
765 H_29971 1.218 8.081 10.453 h1 58 NIL_58    0.000
766 H_29972 2.034 6.960 11.511 h1 58 NIL_58    0.000
767 C_2994 6.951 6.913 15.390 c3 59 NIL_59    0.000
768 C_2993 5.415 7.060 15.371 c3 59 NIL_59    0.000
769 H_29931 5.062 6.783 16.360 h1 59 NIL_59    0.000
770 H_29932 5.159 8.113 15.225 h1 59 NIL_59    0.000
771 H_29941 7.364 7.452 16.245 hc 59 NIL_59    0.000
772 H_29942 7.395 7.328 14.483 hc 59 NIL_59    0.000
773 H_29943 7.248 5.867 15.469 hc 59 NIL_59    0.000
774 C_660 7.722 0.559 31.162 c3 60 NIL_60    0.000
775 C_662 8.882 1.312 30.480 c3 60 NIL_60    0.000
776 H_6621 8.705 1.423 29.408 hc 60 NIL_60    0.000
777 H_6622 9.814 0.758 30.610 hc 60 NIL_60    0.000
778 H_6623 9.007 2.304 30.920 hc 60 NIL_60    0.000
779 H_6601 7.556 -0.392 30.648 h1 60 NIL_60    0.000
780 H_6602 8.018 0.351 32.193 h1 60 NIL_60    0.000
781 C_1479 -6.668 6.440 3.455 c3 61 NIL_61    0.000
782 C_1478 -5.868 5.123 3.459 c3 61 NIL_61    0.000
783 H_14781 -6.562 4.299 3.631 h1 61 NIL_61    0.000
784 H_14782 -5.444 4.959 2.467 h1 61 NIL_61    0.000
785 H_14791 -7.379 6.458 4.282 hc 61 NIL_61    0.000
786 H_14792 -7.229 6.538 2.522 hc 61 NIL_61    0.000
787 H_14793 -6.010 7.304 3.557 hc 61 NIL_61    0.000
788 C_2513 5.655 -4.384 5.407 c3 62 NIL_62    0.000
789 C_2514 6.635 -5.484 5.862 c3 62 NIL_62    0.000
790 H_25141 7.282 -5.101 6.656 hc 62 NIL_62    0.000
791 H_25142 7.269 -5.810 5.035 hc 62 NIL_62    0.000
792 H_25143 6.108 -6.351 6.256 hc 62 NIL_62    0.000
793 H_25131 5.163 -4.012 6.302 h1 62 NIL_62    0.000
794 H_25132 6.238 -3.548 5.016 h1 62 NIL_62    0.000
795 C_1471 -0.574 6.062 -7.043 c3 63 NIL_63    0.000
796 C_1472 -0.223 7.563 -7.086 c3 63 NIL_63    0.000
797 H_14721 -1.116 8.167 -7.249 hc 63 NIL_63    0.000
798 H_14722 0.480 7.764 -7.898 hc 63 NIL_63    0.000
799 H_14723 0.241 7.883 -6.152 hc 63 NIL_63    0.000
800 H_14711 -0.933 5.790 -8.035 h1 63 NIL_63    0.000
801 H_14712 0.336 5.488 -6.861 h1 63 NIL_63    0.000
802 C_309 -3.625 3.026 25.033 c2 64 NIL_64    0.000
803 C_310 -2.947 3.524 23.919 c2 64 NIL_64    0.000
804 C_2299 -3.469 3.050 26.751 c3 64 NIL_64    0.000
805 H_22991 -2.471 3.488 26.851 h1 64 NIL_64    0.000
806 H_22992 -4.142 3.879 26.971 h1 64 NIL_64    0.000
807 H_310 -1.995 4.039 23.978 h4 64 NIL_64    0.000
808 C_1463 -8.216 -1.274 5.264 c3 65 NIL_65    0.000
809 C_1464 -9.693 -0.898 5.513 c3 65 NIL_65    0.000
810 H_14641 -10.024 -1.298 6.474 hc 65 NIL_65    0.000
811 H_14642 -10.343 -1.306 4.738 hc 65 NIL_65    0.000
812 H_14643 -9.826 0.185 5.529 hc 65 NIL_65    0.000
813 H_14631 -7.712 -1.159 6.222 h1 65 NIL_65    0.000
814 H_14632 -8.152 -2.328 4.977 h1 65 NIL_65    0.000
815 C_770 -6.177 5.371 32.344 c3 66 NIL_66    0.000
816 C_769 -5.036 6.051 31.562 c3 66 NIL_66    0.000
817 H_7691 -5.465 6.673 30.772 h1 66 NIL_66    0.000
818 H_7692 -4.484 6.707 32.239 h1 66 NIL_66    0.000
819 H_7701 -5.784 4.767 33.164 hc 66 NIL_66    0.000
820 H_7702 -6.771 4.730 31.690 hc 66 NIL_66    0.000
821 H_7703 -6.840 6.129 32.768 hc 66 NIL_66    0.000
822 C_2965 2.222 6.766 5.570 c3 67 NIL_67    0.000
823 C_2964 2.780 6.698 7.036 c3 67 NIL_67    0.000
824 C_2966 2.940 5.667 4.693 c3 67 NIL_67    0.000
825 N 3.429 5.421 7.187 n 67 NIL_67    0.000
826 C_2968 1.829 7.010 8.195 c 67 NIL_67    0.000
827 C_2967 3.855 5.003 5.810 c3 67 NIL_67    0.000
828 N 1.982 4.648 4.112 n 67 NIL_67    0.000
829 C_2977 3.766 6.372 3.552 c 67 NIL_67    0.000
830 O 0.882 7.750 8.013 o 67 NIL_67    0.000
831 O 4.694 7.105 3.831 o 67 NIL_67    0.000
832 H_29671 3.849 3.915 5.730 h1 67 NIL_67    0.000
833 H_29672 4.888 5.332 5.681 h1 67 NIL_67    0.000
834 H_2964 3.574 7.448 7.116 h1 67 NIL_67    0.000
835 H_29651 1.141 6.623 5.566 hc 67 NIL_67    0.000
836 H_29652 2.393 7.767 5.165 hc 67 NIL_67    0.000
837 C_2924 1.609 4.459 18.780 c3 68 NIL_68    0.000
838 C_2923 2.868 5.331 18.605 c3 68 NIL_68    0.000
839 H_29231 2.582 6.382 18.695 h1 68 NIL_68    0.000
840 H_29232 3.575 5.110 19.408 h1 68 NIL_68    0.000
841 H_29241 0.888 4.651 17.982 hc 68 NIL_68    0.000
842 H_29242 1.130 4.685 19.735 hc 68 NIL_68    0.000
843 H_29243 1.863 3.397 18.773 hc 68 NIL_68    0.000
844 C_2831 6.045 0.093 -15.721 c3 69 NIL_69    0.000
845 C_2860 5.834 1.248 -16.712 c3 69 NIL_69    0.000
846 H_28601 6.495 2.085 -16.478 hc 69 NIL_69    0.000
847 H_28602 4.799 1.590 -16.687 hc 69 NIL_69    0.000
848 H_28603 6.051 0.913 -17.728 hc 69 NIL_69    0.000
849 H_28311 5.322 -0.699 -15.931 h1 69 NIL_69    0.000
850 H_28312 7.049 -0.313 -15.869 h1 69 NIL_69    0.000
851 C_2292 4.475 1.731 26.855 c3 70 NIL_70    0.000
852 C_243 4.389 1.734 25.137 c2 70 NIL_70    0.000
853 C_245 5.141 1.261 24.060 c2 70 NIL_70    0.000
854 H_245 6.059 0.694 24.176 h4 70 NIL_70    0.000
855 H_22921 4.724 0.682 27.033 h1 70 NIL_70    0.000
856 H_22922 5.422 2.259 26.997 h1 70 NIL_70    0.000
857 C_1392 -7.685 -0.678 19.003 c3 71 NIL_71    0.000
858 C_1391 -6.244 -0.282 18.646 c3 71 NIL_71    0.000
859 H_13911 -5.868 0.372 19.435 h1 71 NIL_71    0.000
860 H_13912 -5.623 -1.182 18.620 h1 71 NIL_71    0.000
861 H_13921 -8.335 0.200 19.005 hc 71 NIL_71    0.000
862 H_13922 -7.709 -1.121 20.002 hc 71 NIL_71    0.000
863 H_13923 -8.076 -1.406 18.292 hc 71 NIL_71    0.000
864 C_1461 -7.807 2.363 15.179 c3 72 NIL_72    0.000
865 C_1462 -8.152 3.870 15.191 c3 72 NIL_72    0.000
866 H_14621 -8.798 4.090 16.043 hc 72 NIL_72    0.000
867 H_14622 -8.689 4.172 14.289 hc 72 NIL_72    0.000
868 H_14623 -7.247 4.474 15.288 hc 72 NIL_72    0.000
869 H_14611 -7.555 2.130 16.210 h1 72 NIL_72    0.000
870 H_14612 -8.713 1.804 14.926 h1 72 NIL_72    0.000
871 C_1468 -6.560 -2.956 0.602 c3 73 NIL_73    0.000
872 C_1467 -5.527 -1.880 0.228 c3 73 NIL_73    0.000
873 H_14671 -5.313 -1.345 1.146 h1 73 NIL_73    0.000
874 H_14672 -4.595 -2.359 -0.085 h1 73 NIL_73    0.000
875 H_14681 -6.663 -3.685 -0.194 hc 73 NIL_73    0.000
876 H_14682 -7.545 -2.536 0.780 hc 73 NIL_73    0.000
877 H_14683 -6.247 -3.474 1.511 hc 73 NIL_73    0.000
878 C_2995 1.094 3.988 5.113 c3 74 NIL_74    0.000
879 C_2996 1.387 2.506 5.386 c3 74 NIL_74    0.000
880 H_29961 2.429 2.346 5.664 hc 74 NIL_74    0.000
881 H_29962 1.155 1.910 4.504 hc 74 NIL_74    0.000
882 H_29963 0.758 2.147 6.204 hc 74 NIL_74    0.000
883 H_29951 0.065 4.059 4.753 h1 74 NIL_74    0.000
884 H_29952 1.133 4.503 6.074 h1 74 NIL_74    0.000
885 C_2529 -3.375 -2.326 2.583 c3 75 NIL_75    0.000
886 C_2528 -2.333 -2.727 3.629 c3 75 NIL_75    0.000
887 H_25281 -1.364 -2.878 3.160 h1 75 NIL_75    0.000
888 H_25282 -2.186 -1.868 4.287 h1 75 NIL_75    0.000
889 H_25291 -3.054 -1.423 2.061 hc 75 NIL_75    0.000
890 H_25292 -4.335 -2.125 3.065 hc 75 NIL_75    0.000
891 H_25293 -3.511 -3.122 1.851 hc 75 NIL_75    0.000
892 C_2378 -3.974 -6.308 -16.318 c3 76 NIL_76    0.000
893 C_2349 -2.820 -5.360 -15.957 c3 76 NIL_76    0.000
894 H_23491 -1.940 -5.612 -16.555 h1 76 NIL_76    0.000
895 H_23492 -3.115 -4.333 -16.188 h1 76 NIL_76    0.000
896 H_23781 -3.692 -7.346 -16.129 hc 76 NIL_76    0.000
897 H_23782 -4.226 -6.205 -17.376 hc 76 NIL_76    0.000
898 H_23783 -4.862 -6.072 -15.728 hc 76 NIL_76    0.000
899 C_2515 4.914 -7.017 10.424 c3 77 NIL_77    0.000
900 C_2516 6.407 -6.657 10.287 c3 77 NIL_77    0.000
901 H_25161 6.981 -7.146 11.077 hc 77 NIL_77    0.000
902 H_25162 6.561 -5.579 10.366 hc 77 NIL_77    0.000
903 H_25163 6.800 -6.989 9.323 hc 77 NIL_77    0.000
904 H_25151 4.803 -8.101 10.330 h1 77 NIL_77    0.000
905 H_25152 4.574 -6.763 11.429 h1 77 NIL_77    0.000
906 C_1466 -9.282 2.432 10.586 c3 78 NIL_78    0.000
907 C_1465 -8.706 1.030 10.287 c3 78 NIL_78    0.000
908 H_14651 -8.340 0.626 11.230 h1 78 NIL_78    0.000
909 H_14652 -9.513 0.378 9.941 h1 78 NIL_78    0.000
910 H_14661 -9.922 2.779 9.773 hc 78 NIL_78    0.000
911 H_14662 -8.482 3.160 10.706 hc 78 NIL_78    0.000
912 H_14663 -9.877 2.420 11.503 hc 78 NIL_78    0.000
913 C_2441 3.327 -5.251 18.820 c3 79 NIL_79    0.000
914 C_2442 4.278 -4.061 19.065 c3 79 NIL_79    0.000
915 H_24421 3.730 -3.117 19.053 hc 79 NIL_79    0.000
916 H_24422 5.069 -4.020 18.312 hc 79 NIL_79    0.000
917 H_24423 4.754 -4.159 20.043 hc 79 NIL_79    0.000
918 H_24411 3.901 -6.176 18.930 h1 79 NIL_79    0.000
919 H_24412 2.559 -5.253 19.595 h1 79 NIL_79    0.000
920 C_3007 8.855 -1.942 -6.744 c3 80 NIL_80    0.000
921 C_3006 8.530 -0.437 -6.838 c3 80 NIL_80    0.000
922 H_30061 9.459 0.129 -6.726 h1 80 NIL_80    0.000
923 H_30062 8.158 -0.215 -7.840 h1 80 NIL_80    0.000
924 H_30071 7.952 -2.551 -6.808 hc 80 NIL_80    0.000
925 H_30072 9.353 -2.170 -5.799 hc 80 NIL_80    0.000
926 H_30073 9.522 -2.231 -7.559 hc 80 NIL_80    0.000
927 C_2512 0.522 -7.762 15.923 c3 81 NIL_81    0.000
928 C_2511 1.942 -7.622 15.359 c3 81 NIL_81    0.000
929 H_25111 2.628 -7.546 16.197 h1 81 NIL_81    0.000
930 H_25112 2.208 -8.556 14.859 h1 81 NIL_81    0.000
931 H_25121 0.132 -6.795 16.219 hc 81 NIL_81    0.000
932 H_25122 0.524 -8.403 16.806 hc 81 NIL_81    0.000
933 H_25123 -0.143 -8.199 15.175 hc 81 NIL_81    0.000
934 C_112 -2.369 -7.367 31.624 c3 82 NIL_82    0.000
935 C_188 -2.899 -8.491 30.711 c3 82 NIL_82    0.000
936 H_1881 -3.846 -8.198 30.252 hc 82 NIL_82    0.000
937 H_1882 -3.068 -9.396 31.298 hc 82 NIL_82    0.000
938 H_1883 -2.186 -8.731 29.920 hc 82 NIL_82    0.000
939 H_1121 -3.080 -7.230 32.442 h1 82 NIL_82    0.000
940 H_1122 -1.408 -7.668 32.051 h1 82 NIL_82    0.000
941 C_1477 -1.335 1.914 -2.065 c3 83 NIL_83    0.000
942 C_1476 -2.740 2.437 -1.698 c3 83 NIL_83    0.000
943 H_14761 -3.235 2.693 -2.632 h1 83 NIL_83    0.000
944 H_14762 -3.318 1.612 -1.274 h1 83 NIL_83    0.000
945 H_14771 -1.418 0.969 -2.607 hc 83 NIL_83    0.000
946 H_14772 -0.729 1.741 -1.173 hc 83 NIL_83    0.000
947 H_14773 -0.812 2.619 -2.714 hc 83 NIL_83    0.000
948 C_1296 -3.026 4.986 -15.845 c3 84 NIL_84    0.000
949 C_1325 -2.394 6.340 -16.208 c3 84 NIL_84    0.000
950 H_13251 -3.093 7.156 -16.009 hc 84 NIL_84    0.000
951 H_13252 -2.133 6.362 -17.268 hc 84 NIL_84    0.000
952 H_13253 -1.485 6.510 -15.627 hc 84 NIL_84    0.000
953 H_12961 -3.914 4.825 -16.461 h1 84 NIL_84    0.000
954 H_12962 -2.309 4.188 -16.051 h1 84 NIL_84    0.000
@<TRIPOS>BOND
1 1 306 1 
2 2 1 1 
3 2 5 1 
4 3 6 1 
5 3 1 1 
6 4 2 1 
7 5 305 1 
8 5 7 2 
9 6 4 1 
10 6 8 1 
11 6 9 1 
12 8 401 1 
13 8 527 1 
14 9 529 1 
15 10 9 2 
16 11 4 1 
17 12 4 1 
18 13 3 1 
19 14 3 1 
20 15 2 1 
21 17 20 1 
22 17 16 1 
23 18 16 1 
24 19 16 2 
25 20 22 1 
26 21 18 1 
27 22 318 1 
28 23 20 1 
29 23 264 1 
30 24 22 2 
31 25 20 1 
32 26 17 1 
33 27 17 1 
34 28 23 1 
35 29 30 2 
36 29 852 1 
37 31 32 1 
38 31 30 1 
39 31 853 1 
40 32 33 1 
41 33 34 1 
42 34 348 1 
43 35 33 1 
44 36 34 2 
45 37 33 1 
46 38 32 1 
47 39 32 1 
48 40 35 1 
49 41 42 1 
50 43 41 1 
51 44 41 1 
52 45 46 1 
53 45 42 1 
54 46 43 1 
55 47 44 2 
56 48 46 1 
57 48 808 1 
58 49 46 1 
59 49 50 2 
60 49 572 1 
61 51 45 1 
62 52 45 1 
63 53 43 1 
64 54 43 1 
65 55 41 1 
66 57 56 1 
67 58 61 1 
68 58 56 1 
69 59 57 1 
70 60 434 1 
71 60 57 1 
72 60 62 2 
73 61 59 1 
74 61 64 1 
75 63 61 1 
76 63 643 1 
77 64 645 1 
78 64 408 1 
79 65 63 2 
80 66 59 1 
81 67 59 1 
82 68 58 1 
83 69 58 1 
84 70 57 1 
85 71 72 1 
86 71 73 1 
87 71 74 1 
88 71 75 1 
89 72 76 1 
90 76 77 1 
91 76 79 1 
92 77 73 1 
93 77 934 1 
94 78 75 2 
95 79 80 2 
96 81 76 1 
97 82 73 1 
98 83 73 1 
99 84 72 1 
100 85 72 1 
101 87 88 1 
102 87 86 2 
103 87 106 1 
104 88 89 1 
105 89 101 1 
106 90 88 1 
107 91 92 1 
108 91 89 1 
109 92 90 1 
110 93 92 1 
111 93 921 1 
112 94 92 1 
113 94 95 2 
114 94 436 1 
115 96 91 1 
116 97 91 1 
117 98 90 1 
118 99 90 1 
119 100 88 1 
120 101 102 1 
121 103 101 2 
122 104 107 1 
123 104 102 1 
124 105 102 1 
125 106 102 1 
126 107 108 1 
127 107 109 1 
128 108 105 1 
129 108 844 1 
130 110 109 2 
131 111 107 1 
132 112 105 1 
133 113 105 1 
134 114 104 1 
135 115 104 1 
136 116 106 1 
137 118 709 1 
138 118 117 2 
139 118 119 1 
140 120 119 1 
141 120 109 1 
142 121 119 1 
143 121 122 1 
144 122 123 1 
145 122 124 2 
146 125 123 1 
147 126 121 1 
148 127 121 1 
149 128 119 1 
150 129 120 1 
151 131 502 1 
152 131 130 2 
153 132 133 1 
154 132 131 1 
155 133 135 1 
156 133 503 1 
157 134 132 1 
158 136 134 1 
159 136 135 1 
160 136 137 1 
161 136 138 1 
162 137 421 1 
163 138 422 1 
164 139 137 2 
165 140 135 1 
166 141 135 1 
167 142 134 1 
168 143 134 1 
169 144 132 1 
170 145 176 1 
171 145 147 2 
172 146 148 1 
173 146 145 1 
174 148 177 1 
175 149 146 1 
176 150 151 1 
177 150 148 1 
178 151 149 1 
179 152 151 1 
180 153 151 1 
181 154 150 1 
182 155 150 1 
183 156 149 1 
184 157 149 1 
185 158 146 1 
186 159 152 1 
187 160 161 2 
188 161 162 1 
189 162 74 1 
190 163 162 1 
191 164 162 1 
192 165 160 1 
193 166 239 1 
194 167 166 1 
195 168 167 1 
196 169 167 1 
197 170 167 1 
198 171 166 1 
199 172 166 1 
200 173 174 1 
201 175 173 1 
202 176 173 1 
203 177 173 1 
204 178 179 1 
205 178 174 1 
206 178 181 1 
207 179 175 1 
208 180 177 2 
209 182 181 2 
210 183 178 1 
211 184 175 1 
212 185 175 1 
213 186 174 1 
214 187 174 1 
215 188 189 2 
216 189 190 1 
217 191 190 1 
218 191 193 1 
219 191 737 1 
220 192 190 1 
221 193 194 1 
222 194 192 1 
223 195 194 1 
224 195 795 1 
225 195 667 1 
226 196 194 1 
227 196 666 1 
228 197 196 2 
229 198 193 1 
230 199 193 1 
231 200 192 1 
232 201 192 1 
233 202 190 1 
234 204 828 1 
235 204 205 1 
236 204 203 2 
237 205 206 1 
238 207 205 1 
239 208 209 1 
240 208 206 1 
241 209 207 1 
242 210 209 1 
243 210 652 1 
244 211 209 1 
245 212 211 2 
246 213 208 1 
247 214 208 1 
248 215 207 1 
249 216 207 1 
250 217 205 1 
251 218 219 1 
252 219 75 1 
253 220 218 1 
254 221 74 1 
255 221 218 1 
256 221 224 2 
257 222 223 1 
258 222 219 1 
259 223 220 1 
260 225 223 1 
261 225 181 1 
262 226 223 1 
263 227 222 1 
264 228 222 1 
265 229 220 1 
266 230 220 1 
267 231 218 1 
268 232 225 1 
269 233 234 1 
270 234 236 1 
271 234 237 1 
272 235 233 1 
273 235 240 1 
274 236 271 1 
275 237 270 1 
276 238 235 1 
277 238 236 1 
278 239 235 1 
279 241 237 2 
280 242 240 2 
281 243 238 1 
282 244 238 1 
283 245 234 1 
284 246 233 1 
285 247 233 1 
286 248 249 1 
287 250 248 1 
288 250 838 1 
289 251 254 1 
290 251 249 1 
291 252 249 1 
292 252 768 1 
293 253 249 1 
294 254 250 1 
295 254 256 1 
296 255 253 2 
297 256 35 1 
298 257 256 2 
299 258 254 1 
300 259 251 1 
301 260 251 1 
302 261 248 1 
303 262 248 1 
304 263 264 2 
305 265 266 1 
306 265 264 1 
307 266 268 1 
308 266 893 1 
309 267 265 1 
310 269 267 1 
311 269 268 1 
312 269 270 1 
313 271 269 1 
314 272 271 2 
315 273 268 1 
316 274 268 1 
317 275 267 1 
318 276 267 1 
319 277 265 1 
320 278 270 1 
321 279 280 1 
322 280 640 1 
323 281 280 1 
324 282 280 1 
325 283 279 1 
326 284 279 1 
327 285 279 1 
328 286 287 1 
329 288 286 1 
330 288 485 1 
331 289 286 1 
332 289 291 1 
333 290 287 2 
334 291 160 1 
335 292 291 1 
336 293 292 2 
337 293 161 1 
338 294 289 1 
339 295 289 1 
340 296 286 1 
341 297 288 1 
342 298 393 1 
343 299 298 1 
344 300 303 1 
345 300 298 1 
346 301 299 1 
347 302 299 1 
348 302 304 2 
349 302 392 1 
350 303 301 1 
351 303 305 1 
352 303 306 1 
353 305 788 1 
354 307 306 2 
355 308 301 1 
356 309 301 1 
357 310 300 1 
358 311 300 1 
359 312 299 1 
360 313 314 1 
361 313 315 1 
362 314 316 1 
363 316 533 1 
364 316 319 2 
365 317 314 1 
366 317 534 1 
367 318 315 1 
368 320 315 1 
369 321 315 1 
370 322 314 1 
371 323 313 1 
372 324 313 1 
373 325 318 1 
374 326 317 1 
375 327 328 1 
376 327 331 1 
377 328 332 1 
378 329 327 1 
379 329 333 1 
380 330 327 1 
381 330 826 1 
382 330 760 1 
383 331 825 1 
384 332 333 1 
385 332 335 1 
386 333 253 1 
387 334 331 2 
388 335 252 1 
389 336 335 2 
390 337 332 1 
391 338 329 1 
392 339 329 1 
393 340 328 1 
394 341 328 1 
395 342 344 2 
396 343 342 1 
397 343 345 1 
398 343 346 1 
399 347 346 1 
400 348 347 1 
401 349 347 1 
402 350 347 1 
403 351 346 1 
404 352 346 1 
405 353 343 1 
406 354 348 1 
407 355 345 1 
408 356 357 2 
409 357 419 1 
410 358 357 1 
411 359 358 1 
412 359 415 1 
413 360 358 1 
414 361 360 1 
415 362 361 1 
416 362 287 1 
417 363 361 1 
418 364 361 1 
419 365 360 1 
420 366 360 1 
421 367 358 1 
422 368 362 1 
423 369 359 1 
424 370 371 1 
425 371 375 1 
426 372 370 1 
427 372 858 1 
428 373 376 1 
429 373 371 1 
430 374 371 1 
431 374 864 1 
432 376 372 1 
433 376 378 1 
434 377 375 2 
435 378 379 2 
436 380 376 1 
437 381 373 1 
438 382 373 1 
439 383 370 1 
440 384 370 1 
441 385 387 1 
442 385 488 1 
443 386 385 1 
444 386 389 1 
445 387 390 1 
446 388 386 1 
447 388 390 1 
448 389 487 1 
449 389 391 2 
450 392 390 1 
451 393 390 1 
452 393 394 2 
453 395 388 1 
454 396 388 1 
455 397 387 1 
456 398 387 1 
457 399 386 1 
458 400 401 1 
459 402 401 1 
460 403 401 1 
461 404 400 1 
462 405 400 1 
463 406 400 1 
464 407 408 1 
465 409 408 1 
466 410 408 1 
467 411 407 1 
468 412 407 1 
469 413 407 1 
470 414 415 2 
471 415 416 1 
472 417 420 1 
473 417 416 1 
474 418 416 1 
475 419 416 1 
476 420 421 1 
477 420 422 1 
478 421 418 1 
479 423 422 2 
480 424 420 1 
481 425 418 1 
482 426 418 1 
483 427 417 1 
484 428 417 1 
485 430 431 1 
486 430 429 2 
487 430 56 1 
488 431 432 1 
489 432 435 1 
490 433 431 1 
491 433 436 1 
492 434 431 1 
493 434 674 1 
494 435 436 1 
495 437 93 1 
496 437 435 1 
497 437 438 2 
498 439 435 1 
499 440 433 1 
500 441 433 1 
501 442 432 1 
502 443 432 1 
503 445 444 2 
504 445 210 1 
505 446 447 1 
506 446 445 1 
507 447 449 1 
508 447 211 1 
509 448 446 1 
510 448 450 1 
511 449 450 1 
512 450 452 1 
513 451 450 1 
514 453 452 2 
515 454 449 1 
516 455 449 1 
517 456 448 1 
518 457 448 1 
519 458 446 1 
520 459 451 1 
521 461 460 1 
522 462 461 1 
523 463 461 1 
524 464 461 1 
525 465 460 1 
526 466 460 1 
527 467 468 1 
528 467 469 1 
529 467 470 1 
530 468 471 2 
531 472 470 1 
532 473 472 1 
533 474 472 1 
534 475 472 1 
535 476 470 1 
536 477 470 1 
537 478 467 1 
538 479 473 1 
539 480 469 1 
540 481 482 1 
541 482 484 1 
542 483 481 1 
543 485 482 1 
544 486 483 1 
545 486 484 1 
546 487 483 1 
547 488 483 1 
548 489 485 2 
549 490 488 2 
550 491 486 1 
551 492 486 1 
552 493 482 1 
553 494 481 1 
554 495 481 1 
555 496 497 1 
556 497 499 1 
557 497 500 1 
558 498 496 1 
559 498 502 1 
560 498 503 1 
561 499 240 1 
562 500 239 1 
563 501 498 1 
564 501 499 1 
565 502 558 1 
566 504 500 2 
567 505 503 2 
568 506 501 1 
569 507 501 1 
570 508 497 1 
571 509 496 1 
572 510 496 1 
573 511 512 1 
574 512 514 1 
575 513 511 1 
576 513 518 1 
577 515 512 1 
578 515 519 2 
579 515 152 1 
580 516 513 1 
581 516 514 1 
582 517 513 1 
583 517 748 1 
584 517 804 1 
585 520 518 2 
586 521 516 1 
587 522 516 1 
588 523 512 1 
589 524 511 1 
590 525 511 1 
591 526 527 2 
592 527 528 1 
593 528 529 1 
594 530 528 1 
595 531 532 1 
596 531 529 1 
597 532 530 1 
598 533 532 1 
599 534 532 1 
600 535 534 2 
601 536 531 1 
602 537 531 1 
603 538 530 1 
604 539 530 1 
605 540 528 1 
606 541 533 1 
607 542 544 2 
608 542 570 1 
609 543 545 1 
610 543 542 1 
611 545 547 1 
612 545 565 1 
613 546 543 1 
614 546 548 1 
615 547 548 1 
616 548 550 1 
617 549 548 1 
618 551 550 2 
619 552 547 1 
620 553 547 1 
621 554 546 1 
622 555 546 1 
623 556 543 1 
624 557 549 1 
625 559 558 1 
626 560 559 1 
627 561 559 1 
628 562 559 1 
629 563 558 1 
630 564 558 1 
631 565 566 1 
632 566 568 1 
633 567 565 2 
634 568 571 1 
635 569 566 1 
636 569 572 1 
637 570 566 1 
638 570 872 1 
639 571 572 1 
640 573 48 1 
641 573 571 1 
642 573 574 2 
643 575 571 1 
644 576 569 1 
645 577 569 1 
646 578 568 1 
647 579 568 1 
648 580 581 2 
649 581 582 1 
650 581 42 1 
651 582 583 1 
652 583 586 1 
653 584 582 1 
654 584 587 1 
655 585 582 1 
656 585 44 1 
657 585 907 1 
658 586 587 1 
659 587 375 1 
660 588 374 1 
661 588 586 1 
662 589 588 2 
663 590 586 1 
664 591 584 1 
665 592 584 1 
666 593 583 1 
667 594 583 1 
668 596 549 1 
669 596 597 1 
670 596 595 2 
671 598 597 1 
672 598 550 1 
673 599 597 1 
674 600 599 1 
675 601 600 1 
676 602 600 1 
677 603 600 1 
678 604 599 1 
679 605 599 1 
680 606 597 1 
681 607 601 1 
682 608 598 1 
683 609 610 1 
684 610 612 1 
685 610 614 1 
686 611 609 2 
687 612 615 1 
688 613 610 1 
689 613 616 1 
690 615 616 1 
691 617 664 1 
692 617 615 1 
693 617 618 2 
694 619 615 1 
695 620 613 1 
696 621 613 1 
697 622 612 1 
698 623 612 1 
699 624 625 1 
700 624 626 1 
701 626 629 1 
702 626 630 2 
703 627 601 1 
704 627 631 2 
705 627 625 1 
706 628 625 1 
707 632 629 1 
708 633 625 1 
709 634 624 1 
710 635 624 1 
711 636 628 1 
712 637 638 1 
713 637 641 1 
714 638 642 1 
715 639 637 1 
716 639 643 1 
717 640 637 1 
718 640 342 1 
719 641 345 1 
720 642 643 1 
721 644 641 2 
722 645 642 1 
723 645 646 2 
724 647 642 1 
725 648 639 1 
726 649 639 1 
727 650 638 1 
728 651 638 1 
729 653 652 1 
730 654 653 1 
731 655 653 1 
732 656 653 1 
733 657 652 1 
734 658 652 1 
735 660 661 1 
736 660 659 2 
737 660 616 1 
738 661 662 1 
739 662 665 1 
740 663 661 1 
741 663 666 1 
742 664 661 1 
743 664 942 1 
744 665 666 1 
745 667 665 1 
746 667 668 2 
747 669 665 1 
748 670 663 1 
749 671 663 1 
750 672 662 1 
751 673 662 1 
752 675 674 1 
753 676 675 1 
754 677 675 1 
755 678 675 1 
756 679 674 1 
757 680 674 1 
758 681 682 1 
759 682 609 1 
760 683 681 1 
761 684 681 1 
762 684 687 2 
763 684 614 1 
764 685 686 1 
765 685 682 1 
766 686 683 1 
767 686 689 1 
768 688 686 1 
769 688 468 1 
770 688 460 1 
771 689 469 1 
772 690 689 2 
773 691 685 1 
774 692 685 1 
775 693 683 1 
776 694 683 1 
777 695 681 1 
778 696 419 1 
779 696 697 1 
780 698 697 1 
781 699 697 1 
782 700 697 1 
783 701 696 1 
784 702 696 1 
785 704 451 1 
786 704 703 1 
787 704 707 2 
788 705 703 1 
789 705 452 1 
790 706 703 1 
791 708 706 1 
792 709 708 1 
793 710 708 1 
794 711 708 1 
795 712 706 1 
796 713 706 1 
797 714 703 1 
798 715 709 1 
799 716 705 1 
800 717 718 1 
801 717 720 1 
802 718 473 1 
803 719 717 1 
804 719 378 1 
805 721 718 2 
806 722 720 1 
807 722 723 1 
808 722 803 1 
809 724 723 2 
810 725 720 1 
811 726 720 1 
812 727 717 1 
813 728 719 1 
814 730 731 1 
815 730 729 2 
816 730 628 1 
817 731 732 1 
818 733 731 1 
819 734 735 1 
820 734 732 1 
821 735 733 1 
822 735 737 1 
823 736 735 1 
824 736 189 1 
825 738 737 2 
826 739 734 1 
827 740 734 1 
828 741 733 1 
829 742 733 1 
830 743 731 1 
831 744 736 1 
832 745 746 1 
833 745 748 1 
834 746 749 1 
835 746 518 1 
836 747 745 1 
837 748 751 2 
838 750 747 1 
839 750 749 1 
840 750 752 1 
841 752 79 1 
842 753 750 1 
843 754 749 1 
844 755 749 1 
845 756 747 1 
846 757 747 1 
847 758 745 1 
848 759 752 1 
849 761 760 1 
850 762 761 1 
851 763 761 1 
852 764 761 1 
853 765 760 1 
854 766 760 1 
855 767 768 1 
856 769 768 1 
857 770 768 1 
858 771 767 1 
859 772 767 1 
860 773 767 1 
861 774 179 1 
862 775 774 1 
863 776 775 1 
864 777 775 1 
865 778 775 1 
866 779 774 1 
867 780 774 1 
868 781 782 1 
869 782 614 1 
870 783 782 1 
871 784 782 1 
872 785 781 1 
873 786 781 1 
874 787 781 1 
875 789 788 1 
876 790 789 1 
877 791 789 1 
878 792 789 1 
879 793 788 1 
880 794 788 1 
881 796 795 1 
882 797 796 1 
883 798 796 1 
884 799 796 1 
885 800 795 1 
886 801 795 1 
887 802 724 1 
888 802 804 1 
889 803 802 2 
890 805 804 1 
891 806 804 1 
892 807 803 1 
893 809 808 1 
894 810 809 1 
895 811 809 1 
896 812 809 1 
897 813 808 1 
898 814 808 1 
899 815 816 1 
900 816 514 1 
901 817 816 1 
902 818 816 1 
903 819 815 1 
904 820 815 1 
905 821 815 1 
906 822 823 1 
907 823 825 1 
908 824 822 1 
909 826 823 1 
910 827 824 1 
911 827 825 1 
912 828 824 1 
913 828 878 1 
914 829 824 1 
915 829 831 2 
916 829 206 1 
917 830 826 2 
918 832 827 1 
919 833 827 1 
920 834 823 1 
921 835 822 1 
922 836 822 1 
923 838 837 1 
924 839 838 1 
925 840 838 1 
926 841 837 1 
927 842 837 1 
928 843 837 1 
929 845 844 1 
930 846 845 1 
931 847 845 1 
932 848 845 1 
933 849 844 1 
934 850 844 1 
935 851 176 1 
936 851 852 1 
937 853 852 2 
938 854 853 1 
939 855 851 1 
940 856 851 1 
941 858 857 1 
942 859 858 1 
943 860 858 1 
944 861 857 1 
945 862 857 1 
946 863 857 1 
947 865 864 1 
948 866 865 1 
949 867 865 1 
950 868 865 1 
951 869 864 1 
952 870 864 1 
953 871 872 1 
954 873 872 1 
955 874 872 1 
956 875 871 1 
957 876 871 1 
958 877 871 1 
959 879 878 1 
960 880 879 1 
961 881 879 1 
962 882 879 1 
963 883 878 1 
964 884 878 1 
965 885 886 1 
966 886 138 1 
967 887 886 1 
968 888 886 1 
969 889 885 1 
970 890 885 1 
971 891 885 1 
972 892 893 1 
973 894 893 1 
974 895 893 1 
975 896 892 1 
976 897 892 1 
977 898 892 1 
978 899 392 1 
979 900 899 1 
980 901 900 1 
981 902 900 1 
982 903 900 1 
983 904 899 1 
984 905 899 1 
985 906 907 1 
986 908 907 1 
987 909 907 1 
988 910 906 1 
989 911 906 1 
990 912 906 1 
991 913 484 1 
992 914 913 1 
993 915 914 1 
994 916 914 1 
995 917 914 1 
996 918 913 1 
997 919 913 1 
998 921 920 1 
999 922 921 1 
1000 923 921 1 
1001 924 920 1 
1002 925 920 1 
1003 926 920 1 
1004 927 928 1 
1005 928 487 1 
1006 929 928 1 
1007 930 928 1 
1008 931 927 1 
1009 932 927 1 
1010 933 927 1 
1011 934 935 1 
1012 936 935 1 
1013 937 935 1 
1014 938 935 1 
1015 939 934 1 
1016 940 934 1 
1017 941 942 1 
1018 943 942 1 
1019 944 942 1 
1020 945 941 1 
1021 946 941 1 
1022 947 941 1 
1023 948 732 1 
1024 949 948 1 
1025 950 949 1 
1026 951 949 1 
1027 952 949 1 
1028 953 948 1 
1029 954 948 1 
@<TRIPOS>SUBSTRUCTURE
1 NIL_1 1 RESIDUE 1 A NIL 1
2 NIL_2 16 RESIDUE 1 A NIL 1
3 NIL_3 29 RESIDUE 1 A NIL 1
4 NIL_4 41 RESIDUE 1 A NIL 1
5 NIL_5 56 RESIDUE 1 A NIL 1
6 NIL_6 71 RESIDUE 1 A NIL 1
7 NIL_7 86 RESIDUE 1 A NIL 1
8 NIL_8 101 RESIDUE 1 A NIL 1
9 NIL_9 117 RESIDUE 1 A NIL 1
10 NIL_10 130 RESIDUE 1 A NIL 1
11 NIL_11 145 RESIDUE 1 A NIL 1
12 NIL_12 160 RESIDUE 1 A NIL 1
13 NIL_13 166 RESIDUE 1 A NIL 1
14 NIL_14 173 RESIDUE 1 A NIL 1
15 NIL_15 188 RESIDUE 1 A NIL 1
16 NIL_16 203 RESIDUE 1 A NIL 1
17 NIL_17 218 RESIDUE 1 A NIL 1
18 NIL_18 233 RESIDUE 1 A NIL 1
19 NIL_19 248 RESIDUE 1 A NIL 1
20 NIL_20 263 RESIDUE 1 A NIL 1
21 NIL_21 279 RESIDUE 1 A NIL 1
22 NIL_22 286 RESIDUE 1 A NIL 1
23 NIL_23 298 RESIDUE 1 A NIL 1
24 NIL_24 313 RESIDUE 1 A NIL 1
25 NIL_25 327 RESIDUE 1 A NIL 1
26 NIL_26 342 RESIDUE 1 A NIL 1
27 NIL_27 356 RESIDUE 1 A NIL 1
28 NIL_28 370 RESIDUE 1 A NIL 1
29 NIL_29 385 RESIDUE 1 A NIL 1
30 NIL_30 400 RESIDUE 1 A NIL 1
31 NIL_31 407 RESIDUE 1 A NIL 1
32 NIL_32 414 RESIDUE 1 A NIL 1
33 NIL_33 429 RESIDUE 1 A NIL 1
34 NIL_34 444 RESIDUE 1 A NIL 1
35 NIL_35 460 RESIDUE 1 A NIL 1
36 NIL_36 467 RESIDUE 1 A NIL 1
37 NIL_37 481 RESIDUE 1 A NIL 1
38 NIL_38 496 RESIDUE 1 A NIL 1
39 NIL_39 511 RESIDUE 1 A NIL 1
40 NIL_40 526 RESIDUE 1 A NIL 1
41 NIL_41 542 RESIDUE 1 A NIL 1
42 NIL_42 558 RESIDUE 1 A NIL 1
43 NIL_43 565 RESIDUE 1 A NIL 1
44 NIL_44 580 RESIDUE 1 A NIL 1
45 NIL_45 595 RESIDUE 1 A NIL 1
46 NIL_46 609 RESIDUE 1 A NIL 1
47 NIL_47 624 RESIDUE 1 A NIL 1
48 NIL_48 637 RESIDUE 1 A NIL 1
49 NIL_49 652 RESIDUE 1 A NIL 1
50 NIL_50 659 RESIDUE 1 A NIL 1
51 NIL_51 674 RESIDUE 1 A NIL 1
52 NIL_52 681 RESIDUE 1 A NIL 1
53 NIL_53 696 RESIDUE 1 A NIL 1
54 NIL_54 703 RESIDUE 1 A NIL 1
55 NIL_55 717 RESIDUE 1 A NIL 1
56 NIL_56 729 RESIDUE 1 A NIL 1
57 NIL_57 745 RESIDUE 1 A NIL 1
58 NIL_58 760 RESIDUE 1 A NIL 1
59 NIL_59 767 RESIDUE 1 A NIL 1
60 NIL_60 774 RESIDUE 1 A NIL 1
61 NIL_61 781 RESIDUE 1 A NIL 1
62 NIL_62 788 RESIDUE 1 A NIL 1
63 NIL_63 795 RESIDUE 1 A NIL 1
64 NIL_64 802 RESIDUE 1 A NIL 1
65 NIL_65 808 RESIDUE 1 A NIL 1
66 NIL_66 815 RESIDUE 1 A NIL 1
67 NIL_67 822 RESIDUE 1 A NIL 1
68 NIL_68 837 RESIDUE 1 A NIL 1
69 NIL_69 844 RESIDUE 1 A NIL 1
70 NIL_70 851 RESIDUE 1 A NIL 1
71 NIL_71 857 RESIDUE 1 A NIL 1
72 NIL_72 864 RESIDUE 1 A NIL 1
73 NIL_73 871 RESIDUE 1 A NIL 1
74 NIL_74 878 RESIDUE 1 A NIL 1
75 NIL_75 885 RESIDUE 1 A NIL 1
76 NIL_76 892 RESIDUE 1 A NIL 1
77 NIL_77 899 RESIDUE 1 A NIL 1
78 NIL_78 906 RESIDUE 1 A NIL 1
79 NIL_79 913 RESIDUE 1 A NIL 1
80 NIL_80 920 RESIDUE 1 A NIL 1
81 NIL_81 927 RESIDUE 1 A NIL 1
82 NIL_82 934 RESIDUE 1 A NIL 1
83 NIL_83 941 RESIDUE 1 A NIL 1
84 NIL_84 948 RESIDUE 1 A NIL 1
