@<TRIPOS>MOLECULE
NIL
594 639 42 0 0
POLYMER
CHARGES


@<TRIPOS>ATOM
1 C_3532 3.14866 5.08338 -2.66267 C.3 1 NIL_1    0.000
2 C_1477 1.633 4.878 -2.512 C.3 1 NIL_1    0.000
3 C_1476 0.804 5.789 -3.450 C.3 1 NIL_1    0.000
4 H_14761 1.113 6.825 -3.285 H 1 NIL_1    0.000
5 H_14762 1.064 5.567 -4.477 H 1 NIL_1    0.000
6 H_14771 1.411 3.830 -2.710 H 1 NIL_1    0.000
7 H_14772 1.359 5.069 -1.472 H 1 NIL_1    0.000
8 H_35321 3.433 6.105 -2.401 H 1 NIL_1    0.000
9 H_35322 3.461 4.882 -3.687 H 1 NIL_1    0.000
10 H_35323 3.687 4.402 -2.000 H 1 NIL_1    0.000
11 C_729 -2.842 5.620 18.952 C.2 2 NIL_2    0.000
12 C_725 -3.800 4.372 18.766 C.3 2 NIL_2    0.000
13 O -3.097 6.791 18.762 O.2 2 NIL_2    0.000
14 N -4.855 4.363 17.711 N.3 2 NIL_2    0.000
15 C_726 -3.119 2.944 18.581 C.3 2 NIL_2    0.000
16 C_728 -5.215 2.939 17.392 C.3 2 NIL_2    0.000
17 C_727 -4.039 1.975 17.746 C.3 2 NIL_2    0.000
18 N -3.407 1.426 16.471 N.am 2 NIL_2    0.000
19 C_738 -4.565 0.837 18.687 C.2 2 NIL_2    0.000
20 O -5.212 1.104 19.683 O.2 2 NIL_2    0.000
21 H_7281 -5.507 2.809 16.349 H 2 NIL_2    0.000
22 H_7282 -6.089 2.688 17.998 H 2 NIL_2    0.000
23 H_7261 -2.153 3.008 18.084 H 2 NIL_2    0.000
24 H_7262 -2.904 2.522 19.566 H 2 NIL_2    0.000
25 H_725 -4.333 4.311 19.719 H 2 NIL_2    0.000
26 C_2852 5.893 -2.080 3.013 C.2 3 NIL_3    0.000
27 C_2847 5.952 -0.947 4.040 C.3 3 NIL_3    0.000
28 O 6.251 -3.193 3.351 O.2 3 NIL_3    0.000
29 N 5.011 0.104 3.738 N.am 3 NIL_3    0.000
30 C_2848 5.774 -1.318 5.559 C.3 3 NIL_3    0.000
31 C_2850 4.549 0.661 5.084 C.3 3 NIL_3    0.000
32 C_2849 5.233 -0.063 6.355 C.3 3 NIL_3    0.000
33 N 6.313 0.747 7.070 N.am 3 NIL_3    0.000
34 C_2855 4.218 -0.564 7.434 C.2 3 NIL_3    0.000
35 O 3.218 -1.166 7.093 O.2 3 NIL_3    0.000
36 H_28501 3.467 0.520 5.133 H 3 NIL_3    0.000
37 H_28502 4.740 1.737 5.116 H 3 NIL_3    0.000
38 H_28481 5.044 -2.130 5.611 H 3 NIL_3    0.000
39 H_28482 6.701 -1.706 5.988 H 3 NIL_3    0.000
40 H_2847 6.945 -0.511 3.909 H 3 NIL_3    0.000
41 O 8.343 -1.681 -11.899 O.2 4 NIL_4    0.000
42 C_2939 7.221 -1.474 -12.309 C.2 4 NIL_4    0.000
43 C_2935 6.258 -0.829 -11.313 C.3 4 NIL_4    0.000
44 N 4.881 -0.956 -11.693 N.am 4 NIL_4    0.000
45 C_2936 6.380 -1.220 -9.786 C.3 4 NIL_4    0.000
46 C_2938 4.128 -0.715 -10.395 C.3 4 NIL_4    0.000
47 C_2937 4.968 -1.150 -9.083 C.3 4 NIL_4    0.000
48 N 4.614 -2.514 -8.515 N.am 4 NIL_4    0.000
49 C_2948 4.926 -0.111 -7.867 C.2 4 NIL_4    0.000
50 O 4.736 1.070 -8.074 O.2 4 NIL_4    0.000
51 H_29381 3.158 -1.208 -10.438 H 4 NIL_4    0.000
52 H_29382 3.931 0.358 -10.348 H 4 NIL_4    0.000
53 H_29361 6.780 -2.234 -9.709 H 4 NIL_4    0.000
54 H_29362 7.096 -0.561 -9.289 H 4 NIL_4    0.000
55 H_2935 6.478 0.240 -11.386 H 4 NIL_4    0.000
56 C_108 -1.810 -5.516 18.935 C.3 5 NIL_5    0.000
57 N -1.060 -6.690 18.435 N.3 5 NIL_5    0.000
58 C_109 -1.020 -4.362 18.204 C.3 5 NIL_5    0.000
59 C_113 -3.378 -5.378 18.850 C.2 5 NIL_5    0.000
60 C_111 0.309 -6.363 17.937 C.3 5 NIL_5    0.000
61 C_110 0.432 -4.803 17.807 C.3 5 NIL_5    0.000
62 O -4.194 -6.194 18.474 O.2 5 NIL_5    0.000
63 N 0.783 -4.342 16.395 N.am 5 NIL_5    0.000
64 C_137 1.458 -4.315 18.880 C.2 5 NIL_5    0.000
65 O 1.354 -4.659 20.042 O.2 5 NIL_5    0.000
66 H_1111 0.498 -6.869 16.988 H 5 NIL_5    0.000
67 H_1112 1.043 -6.752 18.648 H 5 NIL_5    0.000
68 H_1091 -1.554 -4.140 17.283 H 5 NIL_5    0.000
69 H_1092 -1.003 -3.444 18.795 H 5 NIL_5    0.000
70 H_108 -1.582 -5.433 20.002 H 5 NIL_5    0.000
71 O 8.236 0.327 -1.885 O.2 6 NIL_6    0.000
72 C_2959 7.084 0.064 -2.174 C.2 6 NIL_6    0.000
73 C_2954 6.008 0.331 -1.125 C.3 6 NIL_6    0.000
74 N 4.789 -0.379 -1.392 N.am 6 NIL_6    0.000
75 C_2955 6.374 0.118 0.399 C.3 6 NIL_6    0.000
76 C_2957 4.093 -0.410 -0.045 C.3 6 NIL_6    0.000
77 C_2956 5.127 -0.440 1.190 C.3 6 NIL_6    0.000
78 C_2960 4.709 0.476 2.427 C.2 6 NIL_6    0.000
79 N 5.436 -1.825 1.732 N.am 6 NIL_6    0.000
80 O 4.094 1.508 2.248 O.2 6 NIL_6    0.000
81 H_29571 3.375 -1.224 0.005 H 6 NIL_6    0.000
82 H_29572 3.511 0.513 0.013 H 6 NIL_6    0.000
83 H_29551 7.212 -0.579 0.482 H 6 NIL_6    0.000
84 H_29552 6.709 1.065 0.830 H 6 NIL_6    0.000
85 H_2954 5.764 1.390 -1.251 H 6 NIL_6    0.000
86 C_1426 -2.373 3.856 -2.944 C.2 7 NIL_7    0.000
87 C_1414 -1.491 4.680 -3.997 C.3 7 NIL_7    0.000
88 O -2.944 2.842 -3.293 O.2 7 NIL_7    0.000
89 C_1413 -0.653 3.741 -4.963 C.3 7 NIL_7    0.000
90 C_1415 -2.308 5.365 -5.225 C.3 7 NIL_7    0.000
91 N -0.657 5.662 -3.167 N.am 7 NIL_7    0.000
92 C_1412 -0.442 4.507 -6.321 C.3 7 NIL_7    0.000
93 N -1.705 5.102 -6.619 N.am 7 NIL_7    0.000
94 C_1417 0.220 3.799 -7.494 C.2 7 NIL_7    0.000
95 O 0.948 2.846 -7.279 O.2 7 NIL_7    0.000
96 H_1412 0.213 5.362 -6.172 H 7 NIL_7    0.000
97 H_14151 -3.338 5.004 -5.227 H 7 NIL_7    0.000
98 H_14152 -2.331 6.446 -5.063 H 7 NIL_7    0.000
99 H_14131 -1.229 2.838 -5.184 H 7 NIL_7    0.000
100 H_14132 0.292 3.410 -4.540 H 7 NIL_7    0.000
101 O -0.528 -2.752 8.973 O.2 8 NIL_8    0.000
102 C_2372 -1.422 -3.346 8.400 C.2 8 NIL_8    0.000
103 C_2376 -2.415 -4.155 9.282 C.3 8 NIL_8    0.000
104 NH -3.173 -5.055 8.365 N.am 8 NIL_8    0.000
105 C_2388 -1.812 -4.807 10.680 C.3 8 NIL_8    0.000
106 C_2396 -2.377 -4.587 12.217 C.3 8 NIL_8    0.000
107 NH -1.438 -5.029 13.300 N.am 8 NIL_8    0.000
108 H_23961 -2.584 -3.523 12.355 H 8 NIL_8    0.000
109 H_23962 -3.320 -5.130 12.330 H 8 NIL_8    0.000
110 H_23881 -0.764 -4.506 10.731 H 8 NIL_8    0.000
111 H_23882 -1.764 -5.887 10.522 H 8 NIL_8    0.000
112 H_2376 -3.141 -3.402 9.598 H 8 NIL_8    0.000
113 HH -1.285 -6.025 13.350 H 8 NIL_8    0.000
114 HH -3.775 -5.714 8.835 H 8 NIL_8    0.000
115 C_2475 -3.502 -4.004 -0.324 C.3 9 NIL_9    0.000
116 C_2474 -2.416 -3.957 0.873 C.3 9 NIL_9    0.000
117 N -2.913 -3.678 -1.684 N.am 9 NIL_9    0.000
118 C_2473 -1.354 -3.068 0.122 C.3 9 NIL_9    0.000
119 C_2478 -2.984 -3.277 2.205 C.2 9 NIL_9    0.000
120 N -1.795 -5.296 1.268 N.am 9 NIL_9    0.000
121 C_2472 -1.720 -2.926 -1.414 C.3 9 NIL_9    0.000
122 O -3.815 -2.393 2.134 O.2 9 NIL_9    0.000
123 C_2477 -0.660 -3.163 -2.491 C.2 9 NIL_9    0.000
124 O 0.513 -3.020 -2.198 O.2 9 NIL_9    0.000
125 H_2472 -2.004 -1.880 -1.568 H 9 NIL_9    0.000
126 H_24731 -0.348 -3.458 0.258 H 9 NIL_9    0.000
127 H_24732 -1.349 -2.068 0.561 H 9 NIL_9    0.000
128 H_24751 -3.998 -4.976 -0.356 H 9 NIL_9    0.000
129 H_24752 -4.276 -3.256 -0.139 H 9 NIL_9    0.000
130 C_766 -0.812 -4.257 14.249 C.2 10 NIL_10    0.000
131 C_2285 0.016 -5.044 15.286 C.3 10 NIL_10    0.000
132 O -0.931 -3.048 14.283 O.2 10 NIL_10    0.000
133 H_22851 -0.713 -5.730 15.718 H 10 NIL_10    0.000
134 H_22852 0.729 -5.646 14.716 H 10 NIL_10    0.000
135 C_1305 -1.956 4.260 -10.415 C.3 11 NIL_11    0.000
136 C_1304 -1.228 5.046 -9.208 C.3 11 NIL_11    0.000
137 N -1.788 4.978 -11.750 N.am 11 NIL_11    0.000
138 C_1303 -0.949 6.388 -10.012 C.3 11 NIL_11    0.000
139 N 0.021 4.290 -8.769 N.am 11 NIL_11    0.000
140 C_1316 -2.140 5.358 -7.925 C.2 11 NIL_11    0.000
141 C_1302 -1.787 6.347 -11.340 C.3 11 NIL_11    0.000
142 O -3.239 5.856 -8.082 O.2 11 NIL_11    0.000
143 C_1307 -1.505 7.335 -12.467 C.2 11 NIL_11    0.000
144 O -1.159 8.467 -12.185 O.2 11 NIL_11    0.000
145 H_1302 -2.824 6.570 -11.067 H 11 NIL_11    0.000
146 H_13031 0.101 6.488 -10.275 H 11 NIL_11    0.000
147 H_13032 -1.215 7.270 -9.427 H 11 NIL_11    0.000
148 H_13051 -1.597 3.231 -10.494 H 11 NIL_11    0.000
149 H_13052 -3.029 4.216 -10.203 H 11 NIL_11    0.000
150 C.fa -0.206 5.450 18.587 C.3 12 NIL_12    0.000
151 C_268 0.085 4.836 17.178 C.3 12 NIL_12    0.000
152 C_270 1.016 4.858 19.389 C.3 12 NIL_12    0.000
153 NH -1.560 5.121 19.180 N.am 12 NIL_12    0.000
154 C_267 1.114 3.669 17.347 C.3 12 NIL_12    0.000
155 N 1.889 4.006 18.517 N.am 12 NIL_12    0.000
156 C_272 1.964 3.293 16.126 C.2 12 NIL_12    0.000
157 O 1.439 3.297 15.028 O.2 12 NIL_12    0.000
158 H_267 0.556 2.762 17.600 H 12 NIL_12    0.000
159 H_2701 1.618 5.678 19.791 H 12 NIL_12    0.000
160 H_2702 0.656 4.249 20.223 H 12 NIL_12    0.000
161 H_2681 -0.826 4.507 16.679 H 12 NIL_12    0.000
162 H_2682 0.538 5.612 16.556 H 12 NIL_12    0.000
163 H.fa -0.114 6.538 18.532 H 12 NIL_12    0.000
164 HH -1.564 4.170 19.516 H 12 NIL_12    0.000
165 C_3502 0.656 -6.002 -0.723 C.3 13 NIL_13    0.000
166 C_2529 -0.358 -6.978 -0.108 C.3 13 NIL_13    0.000
167 C_2528 -1.740 -6.336 0.194 C.3 13 NIL_13    0.000
168 H_25281 -2.094 -5.946 -0.758 H 13 NIL_13    0.000
169 H_25282 -2.423 -7.138 0.486 H 13 NIL_13    0.000
170 H_25291 -0.514 -7.793 -0.819 H 13 NIL_13    0.000
171 H_25292 0.082 -7.434 0.779 H 13 NIL_13    0.000
172 H_35021 0.920 -5.212 -0.019 H 13 NIL_13    0.000
173 H_35022 0.246 -5.565 -1.632 H 13 NIL_13    0.000
174 H_35023 1.573 -6.531 -0.992 H 13 NIL_13    0.000
175 C_1306 -1.647 4.536 -13.070 C.2 14 NIL_14    0.000
176 C_1294 -1.617 5.549 -14.309 C.3 14 NIL_14    0.000
177 O -1.553 3.340 -13.267 O.2 14 NIL_14    0.000
178 C_1293 -0.336 5.429 -15.237 C.3 14 NIL_14    0.000
179 C_1295 -2.663 5.120 -15.430 C.3 14 NIL_14    0.000
180 N -1.761 6.961 -13.769 N.am 14 NIL_14    0.000
181 C_1292 -0.688 5.659 -16.774 C.3 14 NIL_14    0.000
182 N -2.192 5.230 -16.877 N.am 14 NIL_14    0.000
183 C_3544 -1.980 8.037 -14.776 C.3 14 NIL_14    0.000
184 C_1297 0.511 5.130 -17.728 C.2 14 NIL_14    0.000
185 C_3546 -3.250 8.894 -14.542 C.3 14 NIL_14    0.000
186 O 0.281 4.273 -18.556 O.2 14 NIL_14    0.000
187 NH 1.832 5.639 -17.617 N.am 14 NIL_14    0.000
188 C_3548 -4.552 8.078 -14.638 C.3 14 NIL_14    0.000
189 C_3668 3.182 5.403 -18.407 C.3 14 NIL_14    0.000
190 C_3656 3.961 3.982 -18.229 C.2 14 NIL_14    0.000
191 C_3654 3.484 2.926 -17.535 C.2 14 NIL_14    0.000
192 C_3658 5.172 3.717 -18.779 C.2 14 NIL_14    0.000
193 C_3652 4.143 1.740 -17.405 C.2 14 NIL_14    0.000
194 C_3660 5.833 2.528 -18.652 C.2 14 NIL_14    0.000
195 C_3574 5.360 1.473 -17.947 C.2 14 NIL_14    0.000
196 C_2831 6.064 0.147 -17.816 C.2 14 NIL_14    0.000
197 O 6.905 -0.196 -18.623 O.2 14 NIL_14    0.000
198 H_3660 6.798 2.430 -19.144 H 14 NIL_14    0.000
199 H_3652 3.624 0.964 -16.849 H 14 NIL_14    0.000
200 H_3658 5.646 4.499 -19.364 H 14 NIL_14    0.000
201 H_3654 2.511 3.015 -17.057 H 14 NIL_14    0.000
202 H_36681 3.866 6.199 -18.102 H 14 NIL_14    0.000
203 H_36682 2.970 5.552 -19.468 H 14 NIL_14    0.000
204 H_35481 -4.643 7.619 -15.627 H 14 NIL_14    0.000
205 H_35482 -5.419 8.727 -14.486 H 14 NIL_14    0.000
206 H_35483 -4.579 7.296 -13.876 H 14 NIL_14    0.000
207 H_35461 -3.281 9.685 -15.296 H 14 NIL_14    0.000
208 H_35462 -3.206 9.390 -13.570 H 14 NIL_14    0.000
209 H_35441 -2.063 7.628 -15.778 H 14 NIL_14    0.000
210 H_35442 -1.110 8.699 -14.764 H 14 NIL_14    0.000
211 H_1292 -0.673 6.735 -16.957 H 14 NIL_14    0.000
212 H_12951 -2.923 4.080 -15.247 H 14 NIL_14    0.000
213 H_12952 -3.587 5.685 -15.313 H 14 NIL_14    0.000
214 H_12931 0.070 4.420 -15.139 H 14 NIL_14    0.000
215 H_12932 0.444 6.123 -14.917 H 14 NIL_14    0.000
216 HH 1.934 6.343 -16.902 H 14 NIL_14    0.000
217 O -3.044 -6.831 -12.371 O.2 15 NIL_15    0.000
218 C_2360 -3.198 -5.670 -12.694 C.2 15 NIL_15    0.000
219 C_2355 -2.613 -4.549 -11.810 C.3 15 NIL_15    0.000
220 N -3.492 -3.430 -11.928 N.am 15 NIL_15    0.000
221 C_2356 -2.256 -4.713 -10.265 C.3 15 NIL_15    0.000
222 C_2358 -3.902 -3.018 -10.525 C.3 15 NIL_15    0.000
223 C_2357 -3.279 -3.936 -9.345 C.3 15 NIL_15    0.000
224 N -4.145 -4.982 -8.655 N.am 15 NIL_15    0.000
225 C_2369 -2.713 -3.022 -8.153 C.2 15 NIL_15    0.000
226 O -2.381 -1.869 -8.346 O.2 15 NIL_15    0.000
227 H_23581 -4.993 -3.005 -10.458 H 15 NIL_15    0.000
228 H_23582 -3.568 -1.985 -10.412 H 15 NIL_15    0.000
229 H_23561 -2.161 -5.764 -9.989 H 15 NIL_15    0.000
230 H_23562 -1.270 -4.268 -10.107 H 15 NIL_15    0.000
231 H_2355 -1.684 -4.273 -12.317 H 15 NIL_15    0.000
232 C_2841 4.458 -1.011 -13.020 C.2 16 NIL_16    0.000
233 C_2829 5.461 -1.385 -14.206 C.3 16 NIL_16    0.000
234 O 3.286 -0.793 -13.256 O.2 16 NIL_16    0.000
235 C_2828 4.828 -2.469 -15.184 C.3 16 NIL_16    0.000
236 C_2830 5.595 -0.245 -15.313 C.3 16 NIL_16    0.000
237 N 6.814 -1.776 -13.607 N.am 16 NIL_16    0.000
238 C_2827 5.263 -2.246 -16.695 C.3 16 NIL_16    0.000
239 N 5.577 -0.717 -16.772 N.am 16 NIL_16    0.000
240 C_3522 7.712 -2.412 -14.633 C.3 16 NIL_16    0.000
241 C_2832 4.276 -3.034 -17.703 C.2 16 NIL_16    0.000
242 C_3524 9.150 -2.889 -14.303 C.3 16 NIL_16    0.000
243 O 3.722 -2.421 -18.593 O.2 16 NIL_16    0.000
244 NH 4.036 -4.427 -17.583 N.am 16 NIL_16    0.000
245 C_3526 9.170 -4.192 -13.476 C.3 16 NIL_16    0.000
246 C_3643 3.198 -5.463 -18.429 C.3 16 NIL_16    0.000
247 C_3631 1.587 -5.404 -18.261 C.2 16 NIL_16    0.000
248 C_3629 0.745 -6.378 -18.684 C.2 16 NIL_16    0.000
249 C_3633 0.924 -4.371 -17.701 C.2 16 NIL_16    0.000
250 C_3627 -0.614 -6.327 -18.557 C.2 16 NIL_16    0.000
251 C_3635 -0.426 -4.316 -17.575 C.2 16 NIL_16    0.000
252 C_2378 -1.278 -5.294 -17.981 C.2 16 NIL_16    0.000
253 C_2349 -2.775 -5.205 -17.849 C.2 16 NIL_16    0.000
254 O -3.497 -5.910 -18.526 O.2 16 NIL_16    0.000
255 H_3635 -0.817 -3.406 -17.139 H 16 NIL_16    0.000
256 H_3627 -1.189 -7.168 -18.940 H 16 NIL_16    0.000
257 H_3633 1.492 -3.521 -17.337 H 16 NIL_16    0.000
258 H_3629 1.180 -7.253 -19.163 H 16 NIL_16    0.000
259 H_36431 3.542 -6.466 -18.159 H 16 NIL_16    0.000
260 H_36432 3.443 -5.303 -19.483 H 16 NIL_16    0.000
261 H_35261 10.200 -4.472 -13.242 H 16 NIL_16    0.000
262 H_35262 8.715 -5.008 -14.041 H 16 NIL_16    0.000
263 H_35263 8.624 -4.091 -12.537 H 16 NIL_16    0.000
264 H_35241 9.736 -2.100 -13.827 H 16 NIL_16    0.000
265 H_35242 9.656 -3.097 -15.248 H 16 NIL_16    0.000
266 H_35221 7.817 -1.699 -15.455 H 16 NIL_16    0.000
267 H_35222 7.211 -3.298 -15.024 H 16 NIL_16    0.000
268 H_2827 6.220 -2.750 -16.844 H 16 NIL_16    0.000
269 H_28301 4.776 0.459 -15.166 H 16 NIL_16    0.000
270 H_28302 6.525 0.305 -15.144 H 16 NIL_16    0.000
271 H_28281 3.740 -2.376 -15.157 H 16 NIL_16    0.000
272 H_28282 5.045 -3.487 -14.849 H 16 NIL_16    0.000
273 HH 4.514 -4.864 -16.809 H 16 NIL_16    0.000
274 C_3508 -4.413 -6.387 -14.762 C.3 17 NIL_17    0.000
275 N -3.890 -5.320 -13.856 N.am 17 NIL_17    0.000
276 C_3510 -5.899 -6.799 -14.608 C.3 17 NIL_17    0.000
277 C_2347 -3.875 -3.911 -14.445 C.3 17 NIL_17    0.000
278 C_3512 -6.283 -7.226 -13.186 C.3 17 NIL_17    0.000
279 C_2346 -5.054 -3.445 -15.424 C.3 17 NIL_17    0.000
280 C_2348 -2.752 -3.854 -15.569 C.3 17 NIL_17    0.000
281 C_2359 -3.807 -2.926 -13.185 C.2 17 NIL_17    0.000
282 C_2345 -4.642 -3.446 -16.961 C.3 17 NIL_17    0.000
283 N -3.284 -4.171 -16.974 N.am 17 NIL_17    0.000
284 O -4.111 -1.752 -13.269 O.2 17 NIL_17    0.000
285 C_2350 -4.758 -1.989 -17.669 C.2 17 NIL_17    0.000
286 O -3.771 -1.534 -18.212 O.2 17 NIL_17    0.000
287 NH -5.953 -1.230 -17.711 N.am 17 NIL_17    0.000
288 C_3705 -6.373 0.112 -18.434 C.3 17 NIL_17    0.000
289 C_3693 -5.510 1.490 -18.278 C.2 17 NIL_17    0.000
290 C_3691 -5.806 2.640 -18.930 C.2 17 NIL_17    0.000
291 C_3695 -4.414 1.630 -17.501 C.2 17 NIL_17    0.000
292 C_3689 -5.090 3.801 -18.824 C.2 17 NIL_17    0.000
293 C_3697 -3.694 2.783 -17.396 C.2 17 NIL_17    0.000
294 C_3585 -3.993 3.942 -18.040 C.2 17 NIL_17    0.000
295 C_1296 -3.171 5.204 -17.935 C.2 17 NIL_17    0.000
296 O -3.251 6.069 -18.781 O.2 17 NIL_17    0.000
297 H_3697 -2.811 2.729 -16.770 H 17 NIL_17    0.000
298 H_3689 -5.424 4.656 -19.405 H 17 NIL_17    0.000
299 H_3695 -4.070 0.776 -16.927 H 17 NIL_17    0.000
300 H_3691 -6.672 2.643 -19.587 H 17 NIL_17    0.000
301 H_37051 -7.395 0.328 -18.110 H 17 NIL_17    0.000
302 H_37052 -6.428 -0.120 -19.501 H 17 NIL_17    0.000
303 H_2345 -5.356 -4.079 -17.492 H 17 NIL_17    0.000
304 H_23481 -2.346 -2.838 -15.591 H 17 NIL_17    0.000
305 H_23482 -1.938 -4.539 -15.313 H 17 NIL_17    0.000
306 H_23461 -5.368 -2.429 -15.188 H 17 NIL_17    0.000
307 H_23462 -5.950 -4.036 -15.265 H 17 NIL_17    0.000
308 H_35121 -6.216 -6.379 -12.500 H 17 NIL_17    0.000
309 H_35122 -5.631 -8.030 -12.841 H 17 NIL_17    0.000
310 H_35123 -7.310 -7.595 -13.169 H 17 NIL_17    0.000
311 H_35101 -6.083 -7.635 -15.287 H 17 NIL_17    0.000
312 H_35102 -6.571 -6.003 -14.925 H 17 NIL_17    0.000
313 H_35081 -3.807 -7.286 -14.629 H 17 NIL_17    0.000
314 H_35082 -4.278 -6.096 -15.798 H 17 NIL_17    0.000
315 HH -6.728 -1.660 -17.227 H 17 NIL_17    0.000
316 C_737 -4.804 -1.705 19.111 C.3 18 NIL_18    0.000
317 C.fb -4.515 -3.018 18.286 C.3 18 NIL_18    0.000
318 N -4.316 -0.481 18.395 N.am 18 NIL_18    0.000
319 C_735 -3.933 -2.369 16.982 C.3 18 NIL_18    0.000
320 NH -3.625 -4.012 19.010 N.am 18 NIL_18    0.000
321 C_734 -3.432 -0.936 17.348 C.3 18 NIL_18    0.000
322 C_739 -3.208 0.085 16.223 C.2 18 NIL_18    0.000
323 O -2.814 -0.297 15.137 O.2 18 NIL_18    0.000
324 H_734 -2.448 -1.043 17.814 H 18 NIL_18    0.000
325 H_7351 -3.155 -2.968 16.514 H 18 NIL_18    0.000
326 H_7352 -4.743 -2.275 16.256 H 18 NIL_18    0.000
327 H.fb -5.457 -3.520 18.047 H 18 NIL_18    0.000
328 H_7371 -5.880 -1.611 19.273 H 18 NIL_18    0.000
329 H_7372 -4.307 -1.760 20.084 H 18 NIL_18    0.000
330 HH -2.859 -3.530 19.455 H 18 NIL_18    0.000
331 C_1481 -0.197 6.469 6.793 C.3 19 NIL_19    0.000
332 C_1480 -1.715 6.434 6.481 C.3 19 NIL_19    0.000
333 C_3528 0.284 7.900 7.096 C.3 19 NIL_19    0.000
334 H_35281 -0.275 8.321 7.936 H 19 NIL_19    0.000
335 H_35282 0.151 8.550 6.229 H 19 NIL_19    0.000
336 H_35283 1.343 7.893 7.366 H 19 NIL_19    0.000
337 H_14801 -2.183 7.364 6.820 H 19 NIL_19    0.000
338 H_14802 -1.853 6.395 5.399 H 19 NIL_19    0.000
339 H_14811 0.366 6.058 5.952 H 19 NIL_19    0.000
340 H_14812 0.027 5.845 7.663 H 19 NIL_19    0.000
341 C_260 5.444 3.457 17.728 C.3 20 NIL_20    0.000
342 C_259 3.992 2.854 17.638 C.3 20 NIL_20    0.000
343 N 6.398 2.445 18.294 N.3 20 NIL_20    0.000
344 C_258 4.311 1.366 18.009 C.3 20 NIL_20    0.000
345 N 3.297 2.964 16.274 N.am 20 NIL_20    0.000
346 C_271 3.143 3.514 18.781 C.2 20 NIL_20    0.000
347 C_257 5.671 1.254 18.805 C.3 20 NIL_20    0.000
348 O 3.594 3.639 19.904 O.2 20 NIL_20    0.000
349 C_262 6.290 -0.199 18.873 C.2 20 NIL_20    0.000
350 O 7.429 -0.567 18.666 O.2 20 NIL_20    0.000
351 H_257 5.425 1.482 19.846 H 20 NIL_20    0.000
352 H_2581 4.428 0.795 17.089 H 20 NIL_20    0.000
353 H_2582 3.478 0.923 18.561 H 20 NIL_20    0.000
354 H_2601 5.817 3.831 16.778 H 20 NIL_20    0.000
355 H_2602 5.444 4.328 18.388 H 20 NIL_20    0.000
356 C_3009 8.310 0.282 -5.296 C.3 21 NIL_21    0.000
357 C_3008 7.879 -0.832 -4.316 C.3 21 NIL_21    0.000
358 C_3518 9.560 -0.138 -6.088 C.3 21 NIL_21    0.000
359 H_35181 9.853 0.654 -6.780 H 21 NIL_21    0.000
360 H_35182 9.364 -1.044 -6.665 H 21 NIL_21    0.000
361 H_35183 10.397 -0.331 -5.412 H 21 NIL_21    0.000
362 H_30081 7.675 -1.751 -4.853 H 21 NIL_21    0.000
363 H_30082 8.749 -1.080 -3.704 H 21 NIL_21    0.000
364 H_30091 8.524 1.197 -4.741 H 21 NIL_21    0.000
365 H_30092 7.514 0.507 -6.005 H 21 NIL_21    0.000
366 C_1323 -3.307 4.308 9.366 C.3 22 NIL_22    0.000
367 C_1319 -2.624 5.413 8.535 C.2 22 NIL_22    0.000
368 NH -3.538 3.144 8.461 N.am 22 NIL_22    0.000
369 C_1335 -2.669 3.947 10.840 C.3 22 NIL_22    0.000
370 O -2.280 6.414 9.135 O.2 22 NIL_22    0.000
371 C_1343 -3.195 4.513 12.289 C.3 22 NIL_22    0.000
372 NH -2.718 3.769 13.493 N.am 22 NIL_22    0.000
373 H_13431 -2.891 5.559 12.388 H 22 NIL_22    0.000
374 H_13432 -4.288 4.489 12.288 H 22 NIL_22    0.000
375 H_13351 -1.599 4.157 10.784 H 22 NIL_22    0.000
376 H_13352 -2.731 2.860 10.924 H 22 NIL_22    0.000
377 H_1323 -4.306 4.706 9.565 H 22 NIL_22    0.000
378 HH -1.836 4.083 13.869 H 22 NIL_22    0.000
379 HH -3.928 2.337 8.924 H 22 NIL_22    0.000
380 C_134 4.089 -2.425 17.061 C.3 23 NIL_23    0.000
381 C_133 2.576 -2.787 17.265 C.3 23 NIL_23    0.000
382 C.fc 4.795 -2.400 18.464 C.3 23 NIL_23    0.000
383 N 2.510 -3.518 18.511 N.am 23 NIL_23    0.000
384 C_138 1.805 -3.458 16.112 C.2 23 NIL_23    0.000
385 C_136 3.695 -3.117 19.332 C.3 23 NIL_23    0.000
386 NH 5.182 -1.038 19.004 N.am 23 NIL_23    0.000
387 O 2.104 -3.204 14.961 O.2 23 NIL_23    0.000
388 H_1361 4.126 -4.011 19.793 H 23 NIL_23    0.000
389 H_1362 3.354 -2.447 20.126 H 23 NIL_23    0.000
390 H.fc 5.694 -3.020 18.425 H 23 NIL_23    0.000
391 H_133 2.042 -1.849 17.443 H 23 NIL_23    0.000
392 H_1341 4.203 -1.479 16.530 H 23 NIL_23    0.000
393 H_1342 4.560 -3.203 16.453 H 23 NIL_23    0.000
394 HH 4.357 -0.542 19.303 H 23 NIL_23    0.000
395 C_2522 -4.895 -7.122 -9.762 C.3 24 NIL_24    0.000
396 C_2521 -5.196 -5.627 -9.475 C.3 24 NIL_24    0.000
397 C_3506 -5.905 -8.095 -9.122 C.3 24 NIL_24    0.000
398 H_35061 -5.782 -9.091 -9.552 H 24 NIL_24    0.000
399 H_35062 -6.931 -7.769 -9.303 H 24 NIL_24    0.000
400 H_35063 -5.752 -8.184 -8.046 H 24 NIL_24    0.000
401 H_25211 -5.309 -5.118 -10.431 H 24 NIL_24    0.000
402 H_25212 -6.149 -5.536 -8.946 H 24 NIL_24    0.000
403 H_25221 -3.883 -7.389 -9.446 H 24 NIL_24    0.000
404 H_25222 -4.931 -7.280 -10.832 H 24 NIL_24    0.000
405 C_1315 -3.678 4.554 4.906 C.3 25 NIL_25    0.000
406 C_1314 -2.798 4.173 6.208 C.3 25 NIL_25    0.000
407 N -2.953 4.339 3.574 N.am 25 NIL_25    0.000
408 C_1313 -1.580 3.555 5.420 C.3 25 NIL_25    0.000
409 N -2.410 5.310 7.154 N.am 25 NIL_25    0.000
410 C_1320 -3.466 3.070 7.083 C.2 25 NIL_25    0.000
411 C_1312 -1.577 4.081 3.935 C.3 25 NIL_25    0.000
412 O -3.931 2.078 6.556 O.2 25 NIL_25    0.000
413 C_1317 -0.872 3.204 2.905 C.2 25 NIL_25    0.000
414 O 0.080 2.538 3.267 O.2 25 NIL_25    0.000
415 H_1312 -1.056 5.043 3.906 H 25 NIL_25    0.000
416 H_13131 -1.684 2.468 5.380 H 25 NIL_25    0.000
417 H_13132 -0.627 3.751 5.914 H 25 NIL_25    0.000
418 H_13151 -4.588 3.950 4.895 H 25 NIL_25    0.000
419 H_13152 -3.985 5.600 4.972 H 25 NIL_25    0.000
420 N -2.688 -3.500 -6.841 N.am 26 NIL_26    0.000
421 C_2462 -2.743 -4.907 -6.577 C.3 26 NIL_26    0.000
422 C_2465 -2.863 -2.816 -5.487 C.3 26 NIL_26    0.000
423 C_2463 -2.690 -5.132 -5.014 C.3 26 NIL_26    0.000
424 C_2467 -3.926 -5.459 -7.371 C.2 26 NIL_26    0.000
425 C_2464 -2.473 -3.765 -4.249 C.3 26 NIL_26    0.000
426 O -4.669 -6.269 -6.853 O.2 26 NIL_26    0.000
427 N -1.045 -3.516 -3.779 N.am 26 NIL_26    0.000
428 C_2476 -3.431 -3.792 -2.973 C.2 26 NIL_26    0.000
429 O -4.625 -3.980 -3.104 O.2 26 NIL_26    0.000
430 H_24631 -3.618 -5.604 -4.691 H 26 NIL_26    0.000
431 H_24632 -1.899 -5.842 -4.761 H 26 NIL_26    0.000
432 H_24651 -3.923 -2.562 -5.401 H 26 NIL_26    0.000
433 H_24652 -2.306 -1.879 -5.457 H 26 NIL_26    0.000
434 H_2462 -1.851 -5.359 -7.019 H 26 NIL_26    0.000
435 C_2368 -3.152 -3.422 4.861 C.3 27 NIL_27    0.000
436 C_2367 -2.357 -4.138 6.074 C.3 27 NIL_27    0.000
437 N -2.582 -3.704 3.474 N.am 27 NIL_27    0.000
438 C_2366 -1.476 -5.088 5.167 C.3 27 NIL_27    0.000
439 N -1.539 -3.243 7.006 N.am 27 NIL_27    0.000
440 C_2373 -3.266 -5.029 6.983 C.2 27 NIL_27    0.000
441 C_2365 -1.459 -4.584 3.668 C.3 27 NIL_27    0.000
442 O -4.086 -5.767 6.473 O.2 27 NIL_27    0.000
443 C_2370 -1.406 -5.634 2.555 C.2 27 NIL_27    0.000
444 O -1.055 -6.764 2.836 O.2 27 NIL_27    0.000
445 H_2365 -0.563 -3.974 3.523 H 27 NIL_27    0.000
446 H_23661 -1.891 -6.097 5.185 H 27 NIL_27    0.000
447 H_23662 -0.457 -5.167 5.555 H 27 NIL_27    0.000
448 H_23681 -4.181 -3.789 4.855 H 27 NIL_27    0.000
449 H_23682 -3.210 -2.346 5.016 H 27 NIL_27    0.000
450 C_660 7.687 2.280 17.576 C.3 28 NIL_28    0.000
451 C_662 7.570 1.538 16.228 C.3 28 NIL_28    0.000
452 H_6621 7.074 0.572 16.332 H 28 NIL_28    0.000
453 H_6622 8.567 1.365 15.818 H 28 NIL_28    0.000
454 H_6623 7.017 2.129 15.503 H 28 NIL_28    0.000
455 H_6601 8.382 1.743 18.224 H 28 NIL_28    0.000
456 H_6602 8.112 3.271 17.393 H 28 NIL_28    0.000
457 C_2958 4.349 -0.700 -2.675 C.2 29 NIL_29    0.000
458 C_2946 5.338 -0.738 -3.929 C.3 29 NIL_29    0.000
459 O 3.185 -1.011 -2.803 O.2 29 NIL_29    0.000
460 C_2945 5.183 -2.116 -4.693 C.3 29 NIL_29    0.000
461 C_2947 4.912 0.167 -5.196 C.3 29 NIL_29    0.000
462 N 6.753 -0.461 -3.414 N.am 29 NIL_29    0.000
463 C_2944 5.453 -1.899 -6.231 C.3 29 NIL_29    0.000
464 N 5.063 -0.548 -6.545 N.am 29 NIL_29    0.000
465 C_2949 4.886 -2.914 -7.220 C.2 29 NIL_29    0.000
466 O 4.701 -4.058 -6.852 O.2 29 NIL_29    0.000
467 H_2944 6.524 -1.945 -6.425 H 29 NIL_29    0.000
468 H_29471 3.856 0.432 -5.092 H 29 NIL_29    0.000
469 H_29472 5.485 1.097 -5.203 H 29 NIL_29    0.000
470 H_29451 4.155 -2.474 -4.596 H 29 NIL_29    0.000
471 H_29452 5.826 -2.892 -4.272 H 29 NIL_29    0.000
472 C_3500 -1.265 -0.127 7.545 C.3 30 NIL_30    0.000
473 C_2531 -1.109 -0.828 6.182 C.3 30 NIL_30    0.000
474 C_2530 -0.637 -2.304 6.275 C.3 30 NIL_30    0.000
475 H_25301 -0.486 -2.655 5.254 H 30 NIL_30    0.000
476 H_25302 0.350 -2.324 6.744 H 30 NIL_30    0.000
477 H_25311 -2.049 -0.750 5.638 H 30 NIL_30    0.000
478 H_25312 -0.370 -0.274 5.598 H 30 NIL_30    0.000
479 H_35001 -2.085 -0.566 8.118 H 30 NIL_30    0.000
480 H_35002 -1.488 0.931 7.398 H 30 NIL_30    0.000
481 H_35003 -0.345 -0.198 8.127 H 30 NIL_30    0.000
482 C_3007 2.623 -3.738 -9.579 C.3 31 NIL_31    0.000
483 C_3006 4.157 -3.523 -9.511 C.3 31 NIL_31    0.000
484 C_3520 2.079 -4.651 -8.464 C.3 31 NIL_31    0.000
485 H_35201 2.599 -5.612 -8.462 H 31 NIL_31    0.000
486 H_35202 1.014 -4.838 -8.619 H 31 NIL_31    0.000
487 H_35203 2.198 -4.187 -7.485 H 31 NIL_31    0.000
488 H_30061 4.638 -4.482 -9.298 H 31 NIL_31    0.000
489 H_30062 4.507 -3.241 -10.504 H 31 NIL_31    0.000
490 H_30071 2.385 -4.201 -10.540 H 31 NIL_31    0.000
491 H_30072 2.092 -2.786 -9.544 H 31 NIL_31    0.000
492 C_769 -4.685 5.289 16.554 C.3 32 NIL_32    0.000
493 C_770 -5.907 5.323 15.610 C.3 32 NIL_32    0.000
494 H_7701 -5.794 6.135 14.888 H 32 NIL_32    0.000
495 H_7702 -6.826 5.495 16.176 H 32 NIL_32    0.000
496 H_7703 -6.012 4.395 15.046 H 32 NIL_32    0.000
497 H_7691 -3.793 5.040 15.981 H 32 NIL_32    0.000
498 H_7692 -4.567 6.305 16.930 H 32 NIL_32    0.000
499 NH 4.933 1.395 13.132 N.am 33 NIL_33    0.000
500 C_2878 5.307 0.132 12.429 C.3 33 NIL_33    0.000
501 C_2870 5.981 0.184 10.933 C.3 33 NIL_33    0.000
502 C_2858 5.309 0.577 9.478 C.3 33 NIL_33    0.000
503 C_2854 6.341 1.087 8.433 C.2 33 NIL_33    0.000
504 NH 4.415 -0.394 8.793 N.am 33 NIL_33    0.000
505 O 7.195 1.830 8.872 O.2 33 NIL_33    0.000
506 H_2858 4.684 1.454 9.668 H 33 NIL_33    0.000
507 H_28701 6.843 0.837 11.072 H 33 NIL_33    0.000
508 H_28702 6.417 -0.806 10.779 H 33 NIL_33    0.000
509 H_28781 4.413 -0.493 12.362 H 33 NIL_33    0.000
510 H_28782 6.015 -0.383 13.083 H 33 NIL_33    0.000
511 HH 3.750 -0.848 9.400 H 33 NIL_33    0.000
512 HH 5.370 2.243 12.804 H 33 NIL_33    0.000
513 O -0.540 7.259 -1.567 O.2 34 NIL_34    0.000
514 C_1427 -1.058 6.237 -1.979 C.2 34 NIL_34    0.000
515 C_1422 -2.094 5.538 -1.105 C.3 34 NIL_34    0.000
516 N -2.453 4.233 -1.594 N.am 34 NIL_34    0.000
517 C_1423 -1.753 5.377 0.434 C.3 34 NIL_34    0.000
518 C_1425 -3.091 3.593 -0.367 C.3 34 NIL_34    0.000
519 C_1424 -2.406 4.068 1.029 C.3 34 NIL_34    0.000
520 C_1428 -3.389 4.418 2.244 C.2 34 NIL_34    0.000
521 N -1.341 3.143 1.605 N.am 34 NIL_34    0.000
522 O -4.545 4.723 2.030 O.2 34 NIL_34    0.000
523 H_14251 -3.159 2.513 -0.489 H 34 NIL_34    0.000
524 H_14252 -4.127 3.936 -0.367 H 34 NIL_34    0.000
525 H_14231 -0.670 5.333 0.565 H 34 NIL_34    0.000
526 H_14232 -2.104 6.259 0.977 H 34 NIL_34    0.000
527 H_1422 -2.996 6.150 -1.195 H 34 NIL_34    0.000
528 C_3530 1.551 2.805 0.471 C.3 35 NIL_35    0.000
529 C_1479 0.267 2.372 -0.254 C.3 35 NIL_35    0.000
530 C_1478 -0.859 2.024 0.739 C.3 35 NIL_35    0.000
531 H_14781 -1.676 1.553 0.203 H 35 NIL_35    0.000
532 H_14782 -0.483 1.222 1.377 H 35 NIL_35    0.000
533 H_14791 -0.054 3.150 -0.944 H 35 NIL_35    0.000
534 H_14792 0.489 1.484 -0.851 H 35 NIL_35    0.000
535 H_35301 1.804 2.075 1.239 H 35 NIL_35    0.000
536 H_35302 1.423 3.777 0.947 H 35 NIL_35    0.000
537 H_35303 2.387 2.871 -0.226 H 35 NIL_35    0.000
538 C_1472 2.249 4.603 -10.061 C.3 36 NIL_36    0.000
539 C_1471 0.925 3.822 -9.869 C.3 36 NIL_36    0.000
540 C_3542 3.203 4.512 -8.856 C.3 36 NIL_36    0.000
541 H_35421 3.430 3.469 -8.627 H 36 NIL_36    0.000
542 H_35422 2.760 4.973 -7.971 H 36 NIL_36    0.000
543 H_35423 4.136 5.034 -9.077 H 36 NIL_36    0.000
544 H_14711 0.414 3.843 -10.830 H 36 NIL_36    0.000
545 H_14712 1.180 2.776 -9.689 H 36 NIL_36    0.000
546 H_14721 2.052 5.650 -10.285 H 36 NIL_36    0.000
547 H_14722 2.761 4.196 -10.936 H 36 NIL_36    0.000
548 O -4.463 2.366 13.841 O.2 37 NIL_37    0.000
549 C_309 -3.408 2.833 14.220 C.2 37 NIL_37    0.000
550 C_2299 -2.756 2.442 15.557 C.3 37 NIL_37    0.000
551 H_22991 -1.751 2.083 15.312 H 37 NIL_37    0.000
552 H_22992 -2.620 3.381 16.084 H 37 NIL_37    0.000
553 C_112 -1.695 -7.984 18.106 C.3 38 NIL_38    0.000
554 C_188 -2.117 -8.049 16.625 C.3 38 NIL_38    0.000
555 H_1881 -1.241 -8.057 15.974 H 38 NIL_38    0.000
556 H_1882 -2.738 -7.192 16.356 H 38 NIL_38    0.000
557 H_1883 -2.687 -8.961 16.437 H 38 NIL_38    0.000
558 H_1121 -2.566 -8.138 18.746 H 38 NIL_38    0.000
559 H_1122 -0.985 -8.791 18.307 H 38 NIL_38    0.000
560 C_2527 0.367 -2.382 -5.645 C.3 39 NIL_39    0.000
561 C_2526 0.010 -3.658 -4.830 C.3 39 NIL_39    0.000
562 C_3504 0.402 -1.079 -4.822 C.3 39 NIL_39    0.000
563 H_35041 1.053 -1.188 -3.960 H 39 NIL_39    0.000
564 H_35042 -0.592 -0.806 -4.462 H 39 NIL_39    0.000
565 H_35043 0.782 -0.254 -5.430 H 39 NIL_39    0.000
566 H_25261 -0.267 -4.438 -5.539 H 39 NIL_39    0.000
567 H_25262 0.926 -4.014 -4.352 H 39 NIL_39    0.000
568 H_25271 -0.328 -2.252 -6.473 H 39 NIL_39    0.000
569 H_25272 1.349 -2.527 -6.098 H 39 NIL_39    0.000
570 C_3516 3.659 -4.342 1.907 C.3 40 NIL_40    0.000
571 C_3011 4.202 -3.794 0.573 C.3 40 NIL_40    0.000
572 C_3010 5.478 -2.918 0.715 C.3 40 NIL_40    0.000
573 H_30101 6.307 -3.586 0.962 H 40 NIL_40    0.000
574 H_30102 5.724 -2.508 -0.265 H 40 NIL_40    0.000
575 H_30111 4.442 -4.639 -0.075 H 40 NIL_40    0.000
576 H_30112 3.403 -3.252 0.070 H 40 NIL_40    0.000
577 H_35161 2.802 -4.993 1.721 H 40 NIL_40    0.000
578 H_35162 3.331 -3.529 2.559 H 40 NIL_40    0.000
579 H_35163 4.423 -4.926 2.424 H 40 NIL_40    0.000
580 C_3514 9.410 2.428 5.268 C.3 41 NIL_41    0.000
581 C_3013 8.500 2.139 6.474 C.3 41 NIL_41    0.000
582 C_3012 7.387 1.134 6.092 C.3 41 NIL_41    0.000
583 H_30121 6.912 1.547 5.201 H 41 NIL_41    0.000
584 H_30122 7.903 0.218 5.798 H 41 NIL_41    0.000
585 H_30131 9.115 1.731 7.280 H 41 NIL_41    0.000
586 H_30132 8.058 3.080 6.811 H 41 NIL_41    0.000
587 H_35141 9.888 1.509 4.917 H 41 NIL_41    0.000
588 H_35142 10.192 3.138 5.547 H 41 NIL_41    0.000
589 H_35143 8.834 2.857 4.445 H 41 NIL_41    0.000
590 O 3.600 0.466 14.702 O.2 42 NIL_42    0.000
591 C_243 4.184 1.447 14.283 C.2 42 NIL_42    0.000
592 C_2292 4.134 2.801 15.013 C.3 42 NIL_42    0.000
593 H_22921 5.168 3.076 15.172 H 42 NIL_42    0.000
594 H_22922 3.766 3.514 14.269 H 42 NIL_42    0.000
@<TRIPOS>BOND
1 1 8 1 
2 1 9 1 
3 1 10 1 
4 2 3 1 
5 2 1 1 
6 2 6 1 
7 2 7 1 
8 3 4 1 
9 3 5 1 
10 11 13 2 
11 12 14 1 
12 12 11 1 
13 12 25 1 
14 14 16 1 
15 14 492 1 
16 15 12 1 
17 15 17 1 
18 15 23 1 
19 15 24 1 
20 16 17 1 
21 16 21 1 
22 16 22 1 
23 17 19 1 
24 18 17 1 
25 18 550 1 
26 20 19 2 
27 26 27 1 
28 26 28 2 
29 26 79 1 
30 27 29 1 
31 27 40 1 
32 29 78 1 
33 30 27 1 
34 30 38 1 
35 30 39 1 
36 31 32 1 
37 31 29 1 
38 31 36 1 
39 31 37 1 
40 32 30 1 
41 32 34 1 
42 33 32 1 
43 33 503 1 
44 33 582 1 
45 34 504 1 
46 35 34 2 
47 41 42 2 
48 43 44 1 
49 43 42 1 
50 43 55 1 
51 44 46 1 
52 45 43 1 
53 45 53 1 
54 45 54 1 
55 46 51 1 
56 46 52 1 
57 47 45 1 
58 47 46 1 
59 47 48 1 
60 47 49 1 
61 48 483 1 
62 50 49 2 
63 56 57 1 
64 56 59 1 
65 56 70 1 
66 57 60 1 
67 57 553 1 
68 58 56 1 
69 58 61 1 
70 58 68 1 
71 58 69 1 
72 59 62 2 
73 59 320 1 
74 60 61 1 
75 60 66 1 
76 60 67 1 
77 61 64 1 
78 63 61 1 
79 63 384 1 
80 63 131 1 
81 65 64 2 
82 72 462 1 
83 72 71 2 
84 73 74 1 
85 73 72 1 
86 73 85 1 
87 74 76 1 
88 74 457 1 
89 75 73 1 
90 75 77 1 
91 75 83 1 
92 75 84 1 
93 76 77 1 
94 76 81 1 
95 76 82 1 
96 78 77 1 
97 79 77 1 
98 79 572 1 
99 80 78 2 
100 86 87 1 
101 86 88 2 
102 86 516 1 
103 87 89 1 
104 89 92 1 
105 89 99 1 
106 89 100 1 
107 90 87 1 
108 90 93 1 
109 90 97 1 
110 90 98 1 
111 91 87 1 
112 91 3 1 
113 92 93 1 
114 92 96 1 
115 94 92 1 
116 94 95 2 
117 102 439 1 
118 102 103 1 
119 102 101 2 
120 103 112 1 
121 104 103 1 
122 104 114 1 
123 105 103 1 
124 105 110 1 
125 105 111 1 
126 106 105 1 
127 106 108 1 
128 106 109 1 
129 107 106 1 
130 107 113 1 
131 115 116 1 
132 115 117 1 
133 115 128 1 
134 115 129 1 
135 116 118 1 
136 116 120 1 
137 118 121 1 
138 118 126 1 
139 118 127 1 
140 119 116 1 
141 121 117 1 
142 121 125 1 
143 122 119 2 
144 123 427 1 
145 123 121 1 
146 123 124 2 
147 130 132 2 
148 130 107 1 
149 131 130 1 
150 131 133 1 
151 131 134 1 
152 135 136 1 
153 135 137 1 
154 135 148 1 
155 135 149 1 
156 136 138 1 
157 136 140 1 
158 137 175 1 
159 138 141 1 
160 138 146 1 
161 138 147 1 
162 139 136 1 
163 139 539 1 
164 139 94 1 
165 140 93 1 
166 141 137 1 
167 141 143 1 
168 141 145 1 
169 142 140 2 
170 143 144 2 
171 150 151 1 
172 150 163 1 
173 151 154 1 
174 151 161 1 
175 151 162 1 
176 152 150 1 
177 152 155 1 
178 152 159 1 
179 152 160 1 
180 153 150 1 
181 153 11 1 
182 153 164 1 
183 154 155 1 
184 154 158 1 
185 155 346 1 
186 156 345 1 
187 156 154 1 
188 156 157 2 
189 165 172 1 
190 165 173 1 
191 165 174 1 
192 166 167 1 
193 166 165 1 
194 166 170 1 
195 166 171 1 
196 167 120 1 
197 167 168 1 
198 167 169 1 
199 176 175 1 
200 177 175 2 
201 178 181 1 
202 178 176 1 
203 178 214 1 
204 178 215 1 
205 179 176 1 
206 179 212 1 
207 179 213 1 
208 180 176 1 
209 180 143 1 
210 180 183 1 
211 181 182 1 
212 181 184 1 
213 181 211 1 
214 182 179 1 
215 182 295 1 
216 183 209 1 
217 183 210 1 
218 184 186 2 
219 184 187 1 
220 185 183 1 
221 185 207 1 
222 185 208 1 
223 187 189 1 
224 187 216 1 
225 188 185 1 
226 188 204 1 
227 188 205 1 
228 188 206 1 
229 189 202 1 
230 189 203 1 
231 190 191 2 
232 190 189 1 
233 191 193 1 
234 191 201 1 
235 192 190 1 
236 192 200 1 
237 193 199 1 
238 194 192 2 
239 194 198 1 
240 195 193 2 
241 195 194 1 
242 196 197 2 
243 196 195 1 
244 218 275 1 
245 218 219 1 
246 218 217 2 
247 219 220 1 
248 219 231 1 
249 221 219 1 
250 221 229 1 
251 221 230 1 
252 222 223 1 
253 222 220 1 
254 222 227 1 
255 222 228 1 
256 223 221 1 
257 223 225 1 
258 224 223 1 
259 224 396 1 
260 224 424 1 
261 225 420 1 
262 226 225 2 
263 232 44 1 
264 233 232 1 
265 234 232 2 
266 235 238 1 
267 235 233 1 
268 235 271 1 
269 235 272 1 
270 236 233 1 
271 236 269 1 
272 236 270 1 
273 237 233 1 
274 237 42 1 
275 237 240 1 
276 238 239 1 
277 238 241 1 
278 238 268 1 
279 239 236 1 
280 239 196 1 
281 240 266 1 
282 240 267 1 
283 241 243 2 
284 241 244 1 
285 242 240 1 
286 242 264 1 
287 242 265 1 
288 244 246 1 
289 244 273 1 
290 245 242 1 
291 245 261 1 
292 245 262 1 
293 245 263 1 
294 246 247 1 
295 246 259 1 
296 246 260 1 
297 248 250 1 
298 248 247 2 
299 248 258 1 
300 249 247 1 
301 249 257 1 
302 250 256 1 
303 251 249 2 
304 251 255 1 
305 252 250 2 
306 252 251 1 
307 253 252 1 
308 253 254 2 
309 274 313 1 
310 274 314 1 
311 275 274 1 
312 276 274 1 
313 276 278 1 
314 276 311 1 
315 276 312 1 
316 277 279 1 
317 277 275 1 
318 277 281 1 
319 278 308 1 
320 278 309 1 
321 278 310 1 
322 279 282 1 
323 279 306 1 
324 279 307 1 
325 280 277 1 
326 280 283 1 
327 280 304 1 
328 280 305 1 
329 281 284 2 
330 281 220 1 
331 282 283 1 
332 282 285 1 
333 282 303 1 
334 283 253 1 
335 285 286 2 
336 285 287 1 
337 287 288 1 
338 287 315 1 
339 288 289 1 
340 288 301 1 
341 288 302 1 
342 289 290 2 
343 290 292 1 
344 290 300 1 
345 291 289 1 
346 291 299 1 
347 292 298 1 
348 293 291 2 
349 293 297 1 
350 294 292 2 
351 294 293 1 
352 295 296 2 
353 295 294 1 
354 316 317 1 
355 316 318 1 
356 316 328 1 
357 316 329 1 
358 317 319 1 
359 317 327 1 
360 318 19 1 
361 319 321 1 
362 319 325 1 
363 319 326 1 
364 320 317 1 
365 320 330 1 
366 321 318 1 
367 321 324 1 
368 322 18 1 
369 322 321 1 
370 322 323 2 
371 331 332 1 
372 331 333 1 
373 331 339 1 
374 331 340 1 
375 332 337 1 
376 332 338 1 
377 333 334 1 
378 333 335 1 
379 333 336 1 
380 341 342 1 
381 341 354 1 
382 341 355 1 
383 342 346 1 
384 343 341 1 
385 343 450 1 
386 344 347 1 
387 344 342 1 
388 344 352 1 
389 344 353 1 
390 345 342 1 
391 345 592 1 
392 347 343 1 
393 347 349 1 
394 347 351 1 
395 348 346 2 
396 349 350 2 
397 356 357 1 
398 356 358 1 
399 356 364 1 
400 356 365 1 
401 357 362 1 
402 357 363 1 
403 358 359 1 
404 358 360 1 
405 358 361 1 
406 366 367 1 
407 366 377 1 
408 368 366 1 
409 368 410 1 
410 368 379 1 
411 369 366 1 
412 369 375 1 
413 369 376 1 
414 370 367 2 
415 371 372 1 
416 371 369 1 
417 371 373 1 
418 371 374 1 
419 372 549 1 
420 372 378 1 
421 380 381 1 
422 380 392 1 
423 380 393 1 
424 381 383 1 
425 381 384 1 
426 381 391 1 
427 382 380 1 
428 382 390 1 
429 383 64 1 
430 384 387 2 
431 385 382 1 
432 385 383 1 
433 385 388 1 
434 385 389 1 
435 386 382 1 
436 386 349 1 
437 386 394 1 
438 395 396 1 
439 395 397 1 
440 395 403 1 
441 395 404 1 
442 396 401 1 
443 396 402 1 
444 397 398 1 
445 397 399 1 
446 397 400 1 
447 405 406 1 
448 405 418 1 
449 405 419 1 
450 406 408 1 
451 406 410 1 
452 407 405 1 
453 407 520 1 
454 408 416 1 
455 408 417 1 
456 409 406 1 
457 409 367 1 
458 409 332 1 
459 411 407 1 
460 411 408 1 
461 411 413 1 
462 411 415 1 
463 412 410 2 
464 413 414 2 
465 413 521 1 
466 420 421 1 
467 420 422 1 
468 421 434 1 
469 422 425 1 
470 422 432 1 
471 422 433 1 
472 423 421 1 
473 423 430 1 
474 423 431 1 
475 424 421 1 
476 425 423 1 
477 426 424 2 
478 427 425 1 
479 427 561 1 
480 428 425 1 
481 428 117 1 
482 429 428 2 
483 435 448 1 
484 435 449 1 
485 436 438 1 
486 436 435 1 
487 436 439 1 
488 436 440 1 
489 437 435 1 
490 437 119 1 
491 438 441 1 
492 438 446 1 
493 438 447 1 
494 439 474 1 
495 440 442 2 
496 440 104 1 
497 441 437 1 
498 441 443 1 
499 441 445 1 
500 443 444 2 
501 443 120 1 
502 450 455 1 
503 450 456 1 
504 451 450 1 
505 451 452 1 
506 451 453 1 
507 451 454 1 
508 457 458 1 
509 459 457 2 
510 460 463 1 
511 460 458 1 
512 460 470 1 
513 460 471 1 
514 461 458 1 
515 461 468 1 
516 461 469 1 
517 462 458 1 
518 462 357 1 
519 463 464 1 
520 463 465 1 
521 463 467 1 
522 464 461 1 
523 464 49 1 
524 465 48 1 
525 465 466 2 
526 472 479 1 
527 472 480 1 
528 472 481 1 
529 473 474 1 
530 473 472 1 
531 473 477 1 
532 473 478 1 
533 474 475 1 
534 474 476 1 
535 482 483 1 
536 482 484 1 
537 482 490 1 
538 482 491 1 
539 483 488 1 
540 483 489 1 
541 484 485 1 
542 484 486 1 
543 484 487 1 
544 492 497 1 
545 492 498 1 
546 493 492 1 
547 493 494 1 
548 493 495 1 
549 493 496 1 
550 499 500 1 
551 499 512 1 
552 500 501 1 
553 500 509 1 
554 500 510 1 
555 501 507 1 
556 501 508 1 
557 502 503 1 
558 502 504 1 
559 502 501 1 
560 502 506 1 
561 503 505 2 
562 504 511 1 
563 514 91 1 
564 514 515 1 
565 514 513 2 
566 515 516 1 
567 515 527 1 
568 517 515 1 
569 517 525 1 
570 517 526 1 
571 518 519 1 
572 518 516 1 
573 518 523 1 
574 518 524 1 
575 519 517 1 
576 519 521 1 
577 520 519 1 
578 522 520 2 
579 528 535 1 
580 528 536 1 
581 528 537 1 
582 529 530 1 
583 529 528 1 
584 529 533 1 
585 529 534 1 
586 530 521 1 
587 530 531 1 
588 530 532 1 
589 538 539 1 
590 538 540 1 
591 538 546 1 
592 538 547 1 
593 539 544 1 
594 539 545 1 
595 540 541 1 
596 540 542 1 
597 540 543 1 
598 549 550 1 
599 549 548 2 
600 550 551 1 
601 550 552 1 
602 553 554 1 
603 553 558 1 
604 553 559 1 
605 554 555 1 
606 554 556 1 
607 554 557 1 
608 560 561 1 
609 560 562 1 
610 560 568 1 
611 560 569 1 
612 561 566 1 
613 561 567 1 
614 562 563 1 
615 562 564 1 
616 562 565 1 
617 570 577 1 
618 570 578 1 
619 570 579 1 
620 571 572 1 
621 571 570 1 
622 571 575 1 
623 571 576 1 
624 572 573 1 
625 572 574 1 
626 580 587 1 
627 580 588 1 
628 580 589 1 
629 581 582 1 
630 581 580 1 
631 581 585 1 
632 581 586 1 
633 582 583 1 
634 582 584 1 
635 591 592 1 
636 591 590 2 
637 591 499 1 
638 592 593 1 
639 592 594 1 
@<TRIPOS>SUBSTRUCTURE
1 NIL_1 1 RESIDUE 1 A NIL 1
2 NIL_2 11 RESIDUE 1 A NIL 1
3 NIL_3 26 RESIDUE 1 A NIL 1
4 NIL_4 41 RESIDUE 1 A NIL 1
5 NIL_5 56 RESIDUE 1 A NIL 1
6 NIL_6 71 RESIDUE 1 A NIL 1
7 NIL_7 86 RESIDUE 1 A NIL 1
8 NIL_8 101 RESIDUE 1 A NIL 1
9 NIL_9 115 RESIDUE 1 A NIL 1
10 NIL_10 130 RESIDUE 1 A NIL 1
11 NIL_11 135 RESIDUE 1 A NIL 1
12 NIL_12 150 RESIDUE 1 A NIL 1
13 NIL_13 165 RESIDUE 1 A NIL 1
14 NIL_14 175 RESIDUE 1 A NIL 1
15 NIL_15 217 RESIDUE 1 A NIL 1
16 NIL_16 232 RESIDUE 1 A NIL 1
17 NIL_17 274 RESIDUE 1 A NIL 1
18 NIL_18 316 RESIDUE 1 A NIL 1
19 NIL_19 331 RESIDUE 1 A NIL 1
20 NIL_20 341 RESIDUE 1 A NIL 1
21 NIL_21 356 RESIDUE 1 A NIL 1
22 NIL_22 366 RESIDUE 1 A NIL 1
23 NIL_23 380 RESIDUE 1 A NIL 1
24 NIL_24 395 RESIDUE 1 A NIL 1
25 NIL_25 405 RESIDUE 1 A NIL 1
26 NIL_26 420 RESIDUE 1 A NIL 1
27 NIL_27 435 RESIDUE 1 A NIL 1
28 NIL_28 450 RESIDUE 1 A NIL 1
29 NIL_29 457 RESIDUE 1 A NIL 1
30 NIL_30 472 RESIDUE 1 A NIL 1
31 NIL_31 482 RESIDUE 1 A NIL 1
32 NIL_32 492 RESIDUE 1 A NIL 1
33 NIL_33 499 RESIDUE 1 A NIL 1
34 NIL_34 513 RESIDUE 1 A NIL 1
35 NIL_35 528 RESIDUE 1 A NIL 1
36 NIL_36 538 RESIDUE 1 A NIL 1
37 NIL_37 548 RESIDUE 1 A NIL 1
38 NIL_38 553 RESIDUE 1 A NIL 1
39 NIL_39 560 RESIDUE 1 A NIL 1
40 NIL_40 570 RESIDUE 1 A NIL 1
41 NIL_41 580 RESIDUE 1 A NIL 1
42 NIL_42 590 RESIDUE 1 A NIL 1
