@<TRIPOS>MOLECULE
NIL
642 693 45 0 0
POLYMER
CHARGES


@<TRIPOS>ATOM
1 C000 -1.64395 5.13591 -14.3664 C.3 1 NIL_1    0.000
2 C001 -0.896 6.183 -15.288 C.3 1 NIL_1    0.000
3 C002 -2.042 4.136 -15.539 C.3 1 NIL_1    0.000
4 N000 -2.891 5.576 -13.666 N.am 1 NIL_1    0.000
5 C003 -0.667 4.794 -13.181 C.2 1 NIL_1    0.000
6 C004 -0.859 5.729 -16.809 C.3 1 NIL_1    0.000
7 N001 -2.107 4.855 -16.884 N.am 1 NIL_1    0.000
8 C005 -3.612 6.617 -14.391 C.3 1 NIL_1    0.000
9 O000 0.535 4.866 -13.332 O.2 1 NIL_1    0.000
10 C006 0.551 5.092 -17.300 C.2 1 NIL_1    0.000
11 C007 -4.780 6.030 -15.193 C.3 1 NIL_1    0.000
12 O001 0.631 3.887 -17.430 O.2 1 NIL_1    0.000
13 N002 1.690 5.871 -17.607 N.am 1 NIL_1    0.000
14 C008 -5.790 5.368 -14.244 C.3 1 NIL_1    0.000
15 C009 3.107 5.549 -18.229 C.3 1 NIL_1    0.000
16 C00A 3.839 4.114 -18.032 C.2 1 NIL_1    0.000
17 C00B 4.976 3.785 -18.667 C.2 1 NIL_1    0.000
18 C00C 3.416 3.112 -17.244 C.2 1 NIL_1    0.000
19 C00D 5.614 2.596 -18.543 C.2 1 NIL_1    0.000
20 C00E 4.050 1.920 -17.118 C.2 1 NIL_1    0.000
21 C00F 5.184 1.597 -17.762 C.2 1 NIL_1    0.000
22 C00G 5.851 0.268 -17.670 C.2 1 NIL_1    0.000
23 O002 6.826 0.017 -18.347 O.2 1 NIL_1    0.000
24 H000 3.605 1.181 -16.468 H 1 NIL_1    0.000
25 H001 6.522 2.441 -19.120 H 1 NIL_1    0.000
26 H002 2.501 3.262 -16.680 H 1 NIL_1    0.000
27 H003 5.410 4.522 -19.337 H 1 NIL_1    0.000
28 H004 3.788 6.313 -17.847 H 1 NIL_1    0.000
29 H005 3.016 5.724 -19.305 H 1 NIL_1    0.000
30 H006 -6.182 6.102 -13.537 H 1 NIL_1    0.000
31 H007 -5.308 4.565 -13.681 H 1 NIL_1    0.000
32 H008 -6.624 4.945 -14.807 H 1 NIL_1    0.000
33 H009 -4.408 5.293 -15.906 H 1 NIL_1    0.000
34 H00A -5.275 6.823 -15.757 H 1 NIL_1    0.000
35 H00B -2.924 7.116 -15.071 H 1 NIL_1    0.000
36 H00C -3.993 7.348 -13.672 H 1 NIL_1    0.000
37 H00D -1.016 6.611 -17.436 H 1 NIL_1    0.000
38 H00E -1.284 3.351 -15.615 H 1 NIL_1    0.000
39 H00F -3.010 3.674 -15.320 H 1 NIL_1    0.000
40 H00G 0.121 6.343 -14.926 H 1 NIL_1    0.000
41 H00H -1.415 7.139 -15.218 H 1 NIL_1    0.000
42 H00I 1.561 6.860 -17.455 H 1 NIL_1    0.000
43 O003 -3.624 6.256 -3.461 O.2 2 NIL_2    0.000
44 C00H -2.809 5.395 -3.201 C.2 2 NIL_2    0.000
45 C00I -2.302 4.415 -4.317 C.3 2 NIL_2    0.000
46 C00J -3.521 4.283 -5.301 C.3 2 NIL_2    0.000
47 C00K -1.201 4.757 -5.426 C.3 2 NIL_2    0.000
48 N003 -1.870 3.201 -3.560 N.am 2 NIL_2    0.000
49 C00L -3.074 4.378 -6.809 C.3 2 NIL_2    0.000
50 N004 -1.650 4.353 -6.829 N.am 2 NIL_2    0.000
51 C00M -3.436 5.591 -7.668 C.2 2 NIL_2    0.000
52 O004 -4.273 6.401 -7.326 O.2 2 NIL_2    0.000
53 H00J -3.439 3.499 -7.346 H 2 NIL_2    0.000
54 H00K -1.020 5.835 -5.425 H 2 NIL_2    0.000
55 H00L -0.265 4.246 -5.186 H 2 NIL_2    0.000
56 H00M -4.245 5.073 -5.092 H 2 NIL_2    0.000
57 H00N -4.019 3.330 -5.126 H 2 NIL_2    0.000
58 C00N -0.228 -5.034 16.127 C.2 3 NIL_3    0.000
59 C00O 0.716 -4.861 17.301 C.3 3 NIL_3    0.000
60 O005 -0.095 -4.328 15.204 O.2 3 NIL_3    0.000
61 N005 0.988 -6.121 17.964 N.am 3 NIL_3    0.000
62 C00P 2.087 -4.240 16.950 C.3 3 NIL_3    0.000
63 C00Q 2.374 -6.118 18.467 C.3 3 NIL_3    0.000
64 C00R 3.150 -4.921 17.848 C.3 3 NIL_3    0.000
65 N006 4.259 -5.416 17.018 N.am 3 NIL_3    0.000
66 C00S 3.651 -3.986 18.948 C.2 3 NIL_3    0.000
67 H00O 4.095 -6.283 16.529 H 3 NIL_3    0.000
68 O006 3.003 -3.777 19.953 O.2 3 NIL_3    0.000
69 H00P 2.858 -7.059 18.190 H 3 NIL_3    0.000
70 H00Q 2.356 -6.025 19.557 H 3 NIL_3    0.000
71 H00R 2.318 -4.458 15.905 H 3 NIL_3    0.000
72 H00S 2.082 -3.156 17.088 H 3 NIL_3    0.000
73 H00T 0.208 -4.219 18.026 H 3 NIL_3    0.000
74 N007 5.134 0.611 12.685 N.am 4 NIL_4    0.000
75 C00T 5.857 -0.174 11.666 C.3 4 NIL_4    0.000
76 C00U 6.194 0.394 10.147 C.3 4 NIL_4    0.000
77 C00V 5.359 0.283 8.721 C.3 4 NIL_4    0.000
78 C00W 5.859 1.292 7.663 C.2 4 NIL_4    0.000
79 N008 5.167 -1.000 7.981 N.am 4 NIL_4    0.000
80 O007 6.256 2.377 8.039 O.2 4 NIL_4    0.000
81 H00U 4.347 0.629 8.947 H 4 NIL_4    0.000
82 H00V 6.382 1.460 10.288 H 4 NIL_4    0.000
83 H00W 7.175 -0.022 9.912 H 4 NIL_4    0.000
84 H00X 5.333 -1.126 11.555 H 4 NIL_4    0.000
85 H00Y 6.823 -0.405 12.121 H 4 NIL_4    0.000
86 H00Z 4.954 -1.788 8.572 H 4 NIL_4    0.000
87 H010 4.216 0.245 12.891 H 4 NIL_4    0.000
88 C00X -1.897 -4.316 -7.894 C.2 5 NIL_5    0.000
89 C00Y -2.543 -3.238 -6.998 C.3 5 NIL_5    0.000
90 O008 -1.803 -3.998 -7.192 O.2 5 NIL_5    0.000
91 N009 -3.929 -3.509 -7.108 N.am 5 NIL_5    0.000
92 C00Z -2.240 -3.111 -5.443 C.3 5 NIL_5    0.000
93 C010 -4.300 -4.200 -5.794 C.3 5 NIL_5    0.000
94 C011 -3.418 -3.670 -4.582 C.3 5 NIL_5    0.000
95 N00A -4.437 -2.650 -3.937 N.am 5 NIL_5    0.000
96 C012 -2.640 -4.633 -3.536 C.2 5 NIL_5    0.000
97 O009 -1.654 -5.116 -3.740 O.2 5 NIL_5    0.000
98 H011 -4.123 -5.271 -5.919 H 5 NIL_5    0.000
99 H012 -5.361 -4.040 -5.586 H 5 NIL_5    0.000
100 H013 -1.318 -3.658 -5.222 H 5 NIL_5    0.000
101 H014 -2.067 -2.067 -5.198 H 5 NIL_5    0.000
102 H015 -2.338 -2.276 -7.478 H 5 NIL_5    0.000
103 C013 5.674 -3.510 17.578 C.3 6 NIL_6    0.000
104 N00B 4.890 -3.454 18.797 N.am 6 NIL_6    0.000
105 C014 7.144 -3.270 17.986 C.3 6 NIL_6    0.000
106 C015 5.437 -4.786 16.809 C.2 6 NIL_6    0.000
107 C016 5.685 -2.777 19.839 C.3 6 NIL_6    0.000
108 C017 7.082 -2.407 19.263 C.3 6 NIL_6    0.000
109 O00A 6.273 -5.255 16.065 O.2 6 NIL_6    0.000
110 N00C 7.181 -0.965 18.989 N.am 6 NIL_6    0.000
111 H016 7.878 -2.689 19.957 H 6 NIL_6    0.000
112 H017 5.808 -3.464 20.680 H 6 NIL_6    0.000
113 H018 5.163 -1.879 20.178 H 6 NIL_6    0.000
114 H019 7.719 -2.790 17.191 H 6 NIL_6    0.000
115 H01A 7.607 -4.229 18.225 H 6 NIL_6    0.000
116 H01B 5.338 -2.690 16.938 H 6 NIL_6    0.000
117 H01C 6.318 -0.556 18.658 H 6 NIL_6    0.000
118 C018 6.300 0.410 -0.461 C.3 7 NIL_7    0.000
119 C019 6.052 0.298 -2.029 C.3 7 NIL_7    0.000
120 C01A 5.281 -0.442 0.370 C.3 7 NIL_7    0.000
121 N00D 4.727 -0.371 -2.259 N.am 7 NIL_7    0.000
122 C01B 7.087 -0.419 -2.927 C.2 7 NIL_7    0.000
123 C01C 4.250 -0.747 -0.831 C.3 7 NIL_7    0.000
124 C01D 4.588 0.213 1.637 C.2 7 NIL_7    0.000
125 N00E 6.057 -1.588 0.909 N.am 7 NIL_7    0.000
126 O00B 8.256 -0.451 -2.613 O.2 7 NIL_7    0.000
127 O00C 3.564 0.852 1.505 O.2 7 NIL_7    0.000
128 H01D 3.795 -1.646 -0.645 H 7 NIL_7    0.000
129 H01E 3.357 -0.169 -0.691 H 7 NIL_7    0.000
130 H01F 5.930 1.241 -2.432 H 7 NIL_7    0.000
131 H01G 7.326 0.140 -0.205 H 7 NIL_7    0.000
132 H01H 6.162 1.462 -0.205 H 7 NIL_7    0.000
133 C01E 6.179 -3.283 -2.511 C.3 8 NIL_8    0.000
134 C01F 5.694 -2.314 -1.446 C.3 8 NIL_8    0.000
135 C01G 6.375 -2.587 -0.108 C.3 8 NIL_8    0.000
136 H01I 6.071 -3.573 0.256 H 8 NIL_8    0.000
137 H01J 7.458 -2.587 -0.260 H 8 NIL_8    0.000
138 H01K 5.971 -1.399 -1.718 H 8 NIL_8    0.000
139 H01L 4.788 -2.572 -1.491 H 8 NIL_8    0.000
140 H01M 5.683 -3.096 -3.462 H 8 NIL_8    0.000
141 H01N 5.972 -4.311 -2.206 H 8 NIL_8    0.000
142 H01O 7.256 -3.174 -2.653 H 8 NIL_8    0.000
143 C01H -2.510 -4.671 4.307 C.3 9 NIL_9    0.000
144 C01I -2.953 -4.628 5.570 C.3 9 NIL_9    0.000
145 N00F -3.005 -4.750 2.936 N.am 9 NIL_9    0.000
146 C01J -3.968 -3.656 4.871 C.3 9 NIL_9    0.000
147 N00G -3.530 -5.776 6.327 N.am 9 NIL_9    0.000
148 C01K -2.166 -3.791 6.610 C.2 9 NIL_9    0.000
149 C01L -4.000 -3.865 3.307 C.3 9 NIL_9    0.000
150 O00D -1.480 -2.867 6.224 O.2 9 NIL_9    0.000
151 C01M -3.847 -2.646 2.400 C.2 9 NIL_9    0.000
152 O00E -4.085 -1.527 2.806 O.2 9 NIL_9    0.000
153 H01P -4.953 -4.325 3.040 H 9 NIL_9    0.000
154 H01Q -3.664 -2.627 5.070 H 9 NIL_9    0.000
155 H01R -4.967 -3.789 5.290 H 9 NIL_9    0.000
156 H01S -1.239 -4.626 4.161 H 9 NIL_9    0.000
157 H01T -3.034 -5.686 4.486 H 9 NIL_9    0.000
158 C01N 4.180 -3.190 -16.986 C.2 10 NIL_10    0.000
159 C01O 5.434 -2.186 -16.744 C.3 10 NIL_10    0.000
160 O00F 3.134 -2.955 -16.423 O.2 10 NIL_10    0.000
161 N00H 4.254 -4.337 -17.812 N.am 10 NIL_10    0.000
162 N00I 5.172 -0.704 -16.852 N.am 10 NIL_10    0.000
163 C01P 6.031 -2.194 -15.264 C.3 10 NIL_10    0.000
164 C01Q 3.250 -5.498 -18.197 C.3 10 NIL_10    0.000
165 C01R 4.457 -0.494 -15.515 C.3 10 NIL_10    0.000
166 C01S 5.314 -1.130 -14.331 C.3 10 NIL_10    0.000
167 C01T 1.635 -5.388 -18.047 C.2 10 NIL_10    0.000
168 N00J 6.027 0.041 -13.756 N.am 10 NIL_10    0.000
169 C01U 4.839 -1.889 -13.018 C.2 10 NIL_10    0.000
170 C01V 0.788 -6.214 -18.685 C.2 10 NIL_10    0.000
171 C01W 0.964 -4.507 -17.287 C.2 10 NIL_10    0.000
172 C01X 7.072 0.569 -14.625 C.3 10 NIL_10    0.000
173 O00G 4.791 -3.102 -12.990 O.2 10 NIL_10    0.000
174 C01Y -0.563 -6.168 -18.587 C.2 10 NIL_10    0.000
175 C01Z -0.390 -4.456 -17.186 C.2 10 NIL_10    0.000
176 C020 7.236 2.084 -14.437 C.3 10 NIL_10    0.000
177 C021 -1.228 -5.285 -17.830 C.2 10 NIL_10    0.000
178 C022 5.912 2.799 -14.751 C.3 10 NIL_10    0.000
179 C023 -2.716 -5.200 -17.758 C.2 10 NIL_10    0.000
180 O00H -3.409 -5.941 -18.424 O.2 10 NIL_10    0.000
181 H01U 5.119 2.440 -14.093 H 10 NIL_10    0.000
182 H01V 5.618 2.612 -15.783 H 10 NIL_10    0.000
183 H01W 6.021 3.874 -14.608 H 10 NIL_10    0.000
184 H01X 8.022 2.455 -15.097 H 10 NIL_10    0.000
185 H01Y 7.532 2.294 -13.407 H 10 NIL_10    0.000
186 H01Z -0.815 -3.689 -16.557 H 10 NIL_10    0.000
187 H020 -1.141 -6.886 -19.162 H 10 NIL_10    0.000
188 H021 6.808 0.355 -15.664 H 10 NIL_10    0.000
189 H022 8.015 0.066 -14.394 H 10 NIL_10    0.000
190 H023 1.537 -3.786 -16.719 H 10 NIL_10    0.000
191 H024 1.220 -6.974 -19.330 H 10 NIL_10    0.000
192 H025 3.486 -0.992 -15.566 H 10 NIL_10    0.000
193 H026 4.304 0.570 -15.330 H 10 NIL_10    0.000
194 H027 3.564 -6.370 -17.617 H 10 NIL_10    0.000
195 H028 3.456 -5.736 -19.243 H 10 NIL_10    0.000
196 H029 5.948 -3.194 -14.835 H 10 NIL_10    0.000
197 H02A 7.093 -1.947 -15.311 H 10 NIL_10    0.000
198 H02B 6.211 -2.472 -17.457 H 10 NIL_10    0.000
199 H02C 5.154 -4.464 -18.249 H 10 NIL_10    0.000
200 C024 -5.779 -3.248 17.704 C.3 11 NIL_11    0.000
201 N00K -5.408 -2.537 18.911 N.am 11 NIL_11    0.000
202 C025 -6.315 -4.627 18.142 C.3 11 NIL_11    0.000
203 C026 -6.736 -2.457 16.847 C.2 11 NIL_11    0.000
204 C027 -5.219 -3.524 19.994 C.3 11 NIL_11    0.000
205 C028 -5.641 -4.940 19.494 C.3 11 NIL_11    0.000
206 O00I -7.496 -2.997 16.070 O.2 11 NIL_11    0.000
207 N00L -4.478 -5.838 19.367 N.am 11 NIL_11    0.000
208 H02D -6.362 -5.391 20.182 H 11 NIL_11    0.000
209 H02E -5.845 -3.235 20.842 H 11 NIL_11    0.000
210 H02F -4.172 -3.533 20.306 H 11 NIL_11    0.000
211 H02G -6.111 -5.398 17.396 H 11 NIL_11    0.000
212 H02H -7.395 -4.559 18.290 H 11 NIL_11    0.000
213 H02I -4.868 -3.386 17.115 H 11 NIL_11    0.000
214 H02J -3.608 -5.358 19.179 H 11 NIL_11    0.000
215 C029 -2.744 -5.122 1.612 C.2 12 NIL_12    0.000
216 C02A -3.039 -4.341 1.141 C.3 12 NIL_12    0.000
217 O00J -2.044 -6.079 1.337 O.2 12 NIL_12    0.000
218 C02B -5.101 -4.667 -0.006 C.3 12 NIL_12    0.000
219 C02C -2.014 -4.351 -0.784 C.3 12 NIL_12    0.000
220 N00M -3.399 -2.840 1.118 N.am 12 NIL_12    0.000
221 C02D -5.044 -4.659 -2.091 C.3 12 NIL_12    0.000
222 N00N -2.797 -5.248 -2.369 N.am 12 NIL_12    0.000
223 C02E -5.106 -3.040 -3.019 C.2 12 NIL_12    0.000
224 O00K -5.748 -2.193 -2.142 O.2 12 NIL_12    0.000
225 H02K -5.036 -5.063 -2.311 H 12 NIL_12    0.000
226 H02L -1.684 -3.792 -0.868 H 12 NIL_12    0.000
227 H02M -1.662 -5.148 -0.741 H 12 NIL_12    0.000
228 H02N -5.389 -3.750 0.135 H 12 NIL_12    0.000
229 H02O -4.926 -5.443 -0.049 H 12 NIL_12    0.000
230 C02F -2.680 -3.539 -15.668 C.3 13 NIL_13    0.000
231 C02G -3.663 -3.827 -14.441 C.3 13 NIL_13    0.000
232 N00O -3.236 -4.113 -16.969 N.am 13 NIL_13    0.000
233 C02H -4.893 -4.204 -15.351 C.3 13 NIL_13    0.000
234 N00P -2.960 -4.737 -13.487 N.am 13 NIL_13    0.000
235 C02I -4.257 -2.796 -13.450 C.2 13 NIL_13    0.000
236 C02J -4.663 -3.646 -16.829 C.3 13 NIL_13    0.000
237 C02K -2.830 -6.102 -13.985 C.3 13 NIL_13    0.000
238 O00L -4.986 -1.909 -13.844 O.2 13 NIL_13    0.000
239 C02L -4.945 -2.056 -17.014 C.2 13 NIL_13    0.000
240 C02M -2.621 -7.098 -12.836 C.3 13 NIL_13    0.000
241 O00M -4.297 -1.274 -16.353 O.2 13 NIL_13    0.000
242 N00Q -5.922 -1.534 -17.895 N.am 13 NIL_13    0.000
243 C02N -3.864 -7.132 -11.936 C.3 13 NIL_13    0.000
244 C02O -6.456 -0.081 -18.221 C.3 13 NIL_13    0.000
245 C02P -5.567 1.271 -18.061 C.2 13 NIL_13    0.000
246 C02Q -4.525 1.443 -17.235 C.2 13 NIL_13    0.000
247 C02R -5.822 2.397 -18.755 C.2 13 NIL_13    0.000
248 C02S -3.816 2.597 -17.124 C.2 13 NIL_13    0.000
249 C02T -5.119 3.549 -18.646 C.2 13 NIL_13    0.000
250 C02U -4.074 3.713 -17.823 C.2 13 NIL_13    0.000
251 C02V -3.254 4.958 -17.746 C.2 13 NIL_13    0.000
252 O00N -3.479 5.902 -18.475 O.2 13 NIL_13    0.000
253 H02P -5.412 4.387 -19.273 H 13 NIL_13    0.000
254 H02Q -2.981 2.608 -16.435 H 13 NIL_13    0.000
255 H02R -6.652 2.378 -19.455 H 13 NIL_13    0.000
256 H02S -4.224 0.606 -16.616 H 13 NIL_13    0.000
257 H02T -7.350 0.053 -17.607 H 13 NIL_13    0.000
258 H02U -6.802 -0.114 -19.257 H 13 NIL_13    0.000
259 H02V -3.721 -7.837 -11.115 H 13 NIL_13    0.000
260 H02W -4.739 -7.441 -12.512 H 13 NIL_13    0.000
261 H02X -4.051 -6.212 -11.523 H 13 NIL_13    0.000
262 H02Y -1.749 -6.812 -12.250 H 13 NIL_13    0.000
263 H02Z -2.438 -8.094 -13.243 H 13 NIL_13    0.000
264 H030 -1.973 -6.144 -14.662 H 13 NIL_13    0.000
265 H031 -3.734 -6.365 -14.540 H 13 NIL_13    0.000
266 H032 -5.302 -4.180 -17.537 H 13 NIL_13    0.000
267 H033 -5.823 -3.818 -14.928 H 13 NIL_13    0.000
268 H034 -4.971 -5.292 -15.396 H 13 NIL_13    0.000
269 H035 -2.560 -2.460 -15.791 H 13 NIL_13    0.000
270 H036 -1.708 -3.986 -15.459 H 13 NIL_13    0.000
271 H037 -6.415 -2.240 -18.419 H 13 NIL_13    0.000
272 N00R -3.602 4.255 8.157 N.am 14 NIL_14    0.000
273 C02W -3.142 5.448 8.921 C.3 14 NIL_14    0.000
274 C02X -2.226 6.229 7.961 C.2 14 NIL_14    0.000
275 C02Y -2.510 5.418 10.446 C.3 14 NIL_14    0.000
276 O00O -1.592 7.168 8.396 O.2 14 NIL_14    0.000
277 C02Z -2.990 4.668 11.825 C.3 14 NIL_14    0.000
278 N00S -3.801 5.254 12.908 N.am 14 NIL_14    0.000
279 H038 -3.495 3.748 11.519 H 14 NIL_14    0.000
280 H039 -2.066 4.354 12.316 H 14 NIL_14    0.000
281 H03A -2.356 6.463 10.723 H 14 NIL_14    0.000
282 H03B -1.501 5.030 10.287 H 14 NIL_14    0.000
283 H03C -4.036 6.072 8.997 H 14 NIL_14    0.000
284 H03D -4.084 6.222 12.879 H 14 NIL_14    0.000
285 H03E -4.100 3.575 8.711 H 14 NIL_14    0.000
286 C030 -4.724 0.313 17.008 C.3 15 NIL_15    0.000
287 C031 -4.667 1.817 17.372 C.3 15 NIL_15    0.000
288 C032 -5.839 -0.335 17.871 C.3 15 NIL_15    0.000
289 N00T -5.927 2.136 18.010 N.am 15 NIL_15    0.000
290 C033 -4.364 2.759 16.223 C.2 15 NIL_15    0.000
291 C034 -6.589 0.896 18.449 C.3 15 NIL_15    0.000
292 N00U -6.744 -1.114 17.011 N.am 15 NIL_15    0.000
293 C035 -5.281 -1.188 19.013 C.2 15 NIL_15    0.000
294 O00P -3.758 2.323 15.358 O.2 15 NIL_15    0.000
295 H03F -7.397 -0.579 16.458 H 15 NIL_15    0.000
296 O00Q -4.811 -0.684 20.013 O.2 15 NIL_15    0.000
297 H03G -7.621 0.898 18.090 H 15 NIL_15    0.000
298 H03H -6.590 0.854 19.541 H 15 NIL_15    0.000
299 H03I -3.883 1.972 18.117 H 15 NIL_15    0.000
300 H03J -4.993 0.213 15.955 H 15 NIL_15    0.000
301 H03K -3.760 -0.173 17.168 H 15 NIL_15    0.000
302 C036 -2.295 -6.360 18.408 C.3 16 NIL_16    0.000
303 C037 -2.951 -7.571 19.119 C.3 16 NIL_16    0.000
304 C038 -1.262 -6.911 17.413 C.3 16 NIL_16    0.000
305 N00V -2.694 -8.726 18.238 N.3 16 NIL_16    0.000
306 C039 -4.395 -7.202 19.430 C.2 16 NIL_16    0.000
307 C03A -1.905 -8.267 17.069 C.3 16 NIL_16    0.000
308 N00W -1.121 -6.050 16.213 N.am 16 NIL_16    0.000
309 C03B 0.066 -7.097 18.138 C.2 16 NIL_16    0.000
310 O00R -5.319 -7.959 19.650 O.2 16 NIL_16    0.000
311 O00S 0.308 -8.079 18.808 O.2 16 NIL_16    0.000
312 H03L -2.594 -8.117 16.235 H 16 NIL_16    0.000
313 H03M -1.154 -9.005 16.783 H 16 NIL_16    0.000
314 H03N -2.446 -7.734 20.075 H 16 NIL_16    0.000
315 H03O -3.066 -5.821 17.851 H 16 NIL_16    0.000
316 H03P -1.841 -5.671 19.123 H 16 NIL_16    0.000
317 C03C -2.498 4.083 -11.726 C.3 17 NIL_17    0.000
318 N00X -1.190 4.616 -11.908 N.am 17 NIL_17    0.000
319 C03D -2.658 3.789 -10.175 C.3 17 NIL_17    0.000
320 C03E -3.382 5.072 -12.479 C.2 17 NIL_17    0.000
321 C03F -0.752 5.140 -10.548 C.3 17 NIL_17    0.000
322 C03G -1.755 4.759 -9.352 C.3 17 NIL_17    0.000
323 O00T -4.448 5.445 -12.033 O.2 17 NIL_17    0.000
324 N00Y -2.709 5.762 -8.824 N.am 17 NIL_17    0.000
325 C03H -0.991 4.299 -8.049 C.2 17 NIL_17    0.000
326 O00U 0.196 4.044 -8.082 O.2 17 NIL_17    0.000
327 H03Q -0.640 6.079 -10.680 H 17 NIL_17    0.000
328 H03R 0.229 4.715 -10.327 H 17 NIL_17    0.000
329 H03S -3.703 3.857 -9.863 H 17 NIL_17    0.000
330 H03T -2.319 2.768 -9.985 H 17 NIL_17    0.000
331 H03U -2.567 3.140 -12.273 H 17 NIL_17    0.000
332 C03I 6.400 -0.534 3.148 C.3 18 NIL_18    0.000
333 N00Z 5.089 -0.154 2.872 N.am 18 NIL_18    0.000
334 C03J 6.646 -0.869 4.618 C.3 18 NIL_18    0.000
335 C03K 6.663 -1.648 2.139 C.2 18 NIL_18    0.000
336 C03L 4.784 -0.079 4.171 C.3 18 NIL_18    0.000
337 C03M 5.446 -0.670 5.383 C.3 18 NIL_18    0.000
338 O00V 7.379 -2.588 2.420 O.2 18 NIL_18    0.000
339 N010 5.854 1.038 6.301 N.am 18 NIL_18    0.000
340 C03N 4.902 -1.293 6.784 C.2 18 NIL_18    0.000
341 O00W 4.533 -2.267 6.250 O.2 18 NIL_18    0.000
342 H03V 3.618 -0.583 4.297 H 18 NIL_18    0.000
343 H03W 5.595 -0.384 5.591 H 18 NIL_18    0.000
344 H03X 6.480 -1.943 4.809 H 18 NIL_18    0.000
345 H03Y 7.558 -0.566 5.037 H 18 NIL_18    0.000
346 H03Z 7.092 0.274 2.895 H 18 NIL_18    0.000
347 N011 4.354 3.868 17.755 N.am 19 NIL_19    0.000
348 C03O 3.263 3.000 17.373 C.3 19 NIL_19    0.000
349 C03P 3.789 5.142 18.235 C.3 19 NIL_19    0.000
350 C03Q 2.045 3.897 17.086 C.3 19 NIL_19    0.000
351 C03R 3.631 2.085 16.234 C.2 19 NIL_19    0.000
352 C03S 2.288 5.230 17.826 C.3 19 NIL_19    0.000
353 O00X 2.797 1.639 15.473 O.2 19 NIL_19    0.000
354 N012 2.086 6.354 16.901 N.am 19 NIL_19    0.000
355 C03T 1.375 5.329 19.046 C.2 19 NIL_19    0.000
356 H040 2.856 6.569 16.286 H 19 NIL_19    0.000
357 O00Y 1.641 4.773 20.091 O.2 19 NIL_19    0.000
358 H041 1.983 4.089 16.013 H 19 NIL_19    0.000
359 H042 1.116 3.423 17.410 H 19 NIL_19    0.000
360 H043 4.343 5.971 17.786 H 19 NIL_19    0.000
361 H044 3.884 5.192 19.323 H 19 NIL_19    0.000
362 H045 3.044 2.361 18.233 H 19 NIL_19    0.000
363 C03U 3.853 0.546 -10.558 C.3 20 NIL_20    0.000
364 C03V 4.327 0.172 -11.990 C.3 20 NIL_20    0.000
365 C03W 4.389 -0.274 -9.312 C.3 20 NIL_20    0.000
366 N013 4.678 -1.160 -11.845 N.am 20 NIL_20    0.000
367 C03X 5.518 0.786 -12.715 C.2 20 NIL_20    0.000
368 C03Y 5.109 -1.285 -10.372 C.3 20 NIL_20    0.000
369 N014 3.693 -0.062 -7.981 N.am 20 NIL_20    0.000
370 C03Z 5.056 -1.486 -8.671 C.2 20 NIL_20    0.000
371 O00Z 6.012 1.842 -12.381 O.2 20 NIL_20    0.000
372 O010 5.537 -2.615 -8.816 O.2 20 NIL_20    0.000
373 H046 6.191 -1.144 -10.313 H 20 NIL_20    0.000
374 H047 4.639 -2.202 -10.545 H 20 NIL_20    0.000
375 H048 3.483 0.240 -12.680 H 20 NIL_20    0.000
376 H049 4.023 1.611 -10.389 H 20 NIL_20    0.000
377 H04A 2.984 0.379 -10.710 H 20 NIL_20    0.000
378 C040 -1.670 8.815 4.180 C.3 21 NIL_21    0.000
379 C041 -2.410 7.740 4.977 C.3 21 NIL_21    0.000
380 C042 -1.409 6.877 5.761 C.3 21 NIL_21    0.000
381 H04B -0.764 6.336 5.063 H 21 NIL_21    0.000
382 H04C -0.795 7.529 6.388 H 21 NIL_21    0.000
383 H04D -3.114 8.213 5.666 H 21 NIL_21    0.000
384 H04E -2.448 7.605 3.943 H 21 NIL_21    0.000
385 H04F -2.364 9.373 3.547 H 21 NIL_21    0.000
386 H04G -0.909 8.356 3.545 H 21 NIL_21    0.000
387 H04H -1.183 9.511 4.863 H 21 NIL_21    0.000
388 C043 -1.959 3.831 5.058 C.3 22 NIL_22    0.000
389 C044 -1.919 4.070 3.500 C.3 22 NIL_22    0.000
390 C045 -2.824 4.919 5.790 C.3 22 NIL_22    0.000
391 N015 -2.724 5.215 3.198 N.am 22 NIL_22    0.000
392 C046 -2.367 2.958 2.553 C.2 22 NIL_22    0.000
393 C047 -3.454 5.590 4.482 C.3 22 NIL_22    0.000
394 N016 -2.097 5.921 6.620 N.am 22 NIL_22    0.000
395 C048 -3.726 4.134 6.778 C.2 22 NIL_22    0.000
396 O011 -2.413 1.802 2.918 O.2 22 NIL_22    0.000
397 O012 -4.502 3.310 6.339 O.2 22 NIL_22    0.000
398 H04I -4.490 5.270 4.382 H 22 NIL_22    0.000
399 H04J -3.984 6.187 4.941 H 22 NIL_22    0.000
400 H04K -0.893 4.314 3.213 H 22 NIL_22    0.000
401 H04L -2.390 2.846 5.249 H 22 NIL_22    0.000
402 H04M -0.944 3.832 5.460 H 22 NIL_22    0.000
403 N017 -5.192 3.215 16.001 N.am 23 NIL_23    0.000
404 C049 -5.634 4.495 17.529 C.3 23 NIL_23    0.000
405 C04A -4.678 5.189 18.558 C.3 23 NIL_23    0.000
406 C04B -6.575 5.657 17.152 C.3 23 NIL_23    0.000
407 C04C -6.377 3.397 18.201 C.2 23 NIL_23    0.000
408 C04D -5.294 6.573 18.880 C.3 23 NIL_23    0.000
409 N018 -5.978 6.926 17.628 N.3 23 NIL_23    0.000
410 O013 -7.375 3.613 18.856 O.2 23 NIL_23    0.000
411 C04E -4.221 7.543 19.364 C.2 23 NIL_23    0.000
412 O014 -4.402 8.681 19.745 O.2 23 NIL_23    0.000
413 H04N -6.030 6.448 19.678 H 23 NIL_23    0.000
414 H04O -6.775 5.694 16.080 H 23 NIL_23    0.000
415 H04P -7.512 5.492 17.687 H 23 NIL_23    0.000
416 H04Q -3.738 5.195 18.245 H 23 NIL_23    0.000
417 H04R -4.549 4.585 19.438 H 23 NIL_23    0.000
418 C04F -4.504 -3.479 -8.369 C.2 24 NIL_24    0.000
419 C04G -3.576 -3.694 -9.628 C.3 24 NIL_24    0.000
420 O015 -5.713 -3.460 -8.481 O.2 24 NIL_24    0.000
421 C04H -2.636 -2.637 -10.233 C.3 24 NIL_24    0.000
422 C04I -4.373 -3.927 -11.021 C.3 24 NIL_24    0.000
423 N019 -2.528 -4.587 -9.079 N.am 24 NIL_24    0.000
424 C04J -2.607 -2.923 -11.785 C.3 24 NIL_24    0.000
425 N01A -3.976 -2.904 -12.096 N.am 24 NIL_24    0.000
426 C04K -2.275 -4.308 -12.375 C.2 24 NIL_24    0.000
427 O016 -1.301 -5.070 -12.048 O.2 24 NIL_24    0.000
428 H04S -2.072 -2.154 -12.349 H 24 NIL_24    0.000
429 H04T -4.164 -4.862 -11.390 H 24 NIL_24    0.000
430 H04U -5.446 -3.845 -10.841 H 24 NIL_24    0.000
431 H04V -1.638 -2.702 -9.795 H 24 NIL_24    0.000
432 H04W -3.037 -1.637 -10.054 H 24 NIL_24    0.000
433 C04L 5.993 2.176 17.063 C.3 25 NIL_25    0.000
434 C04M 6.245 1.112 18.150 C.3 25 NIL_25    0.000
435 C04N 7.394 2.218 16.427 C.3 25 NIL_25    0.000
436 N01B 4.941 1.788 16.082 N.am 25 NIL_25    0.000
437 C04O 5.660 3.504 17.738 C.2 25 NIL_25    0.000
438 C04P 7.718 1.264 18.621 C.3 25 NIL_25    0.000
439 N01C 8.397 1.919 17.482 N.3 25 NIL_25    0.000
440 O017 6.515 4.229 18.199 O.2 25 NIL_25    0.000
441 C04Q 8.234 -0.101 19.091 C.2 25 NIL_25    0.000
442 O018 9.357 -0.387 19.453 O.2 25 NIL_25    0.000
443 H04X 7.743 1.937 19.482 H 25 NIL_25    0.000
444 H04Y 7.450 1.432 15.671 H 25 NIL_25    0.000
445 H04Z 7.590 3.180 15.955 H 25 NIL_25    0.000
446 H050 6.123 0.125 17.701 H 25 NIL_25    0.000
447 H051 5.545 1.205 18.981 H 25 NIL_25    0.000
448 C04R -3.394 -5.201 10.217 C.3 26 NIL_26    0.000
449 C04S -2.716 -5.224 8.706 C.3 26 NIL_26    0.000
450 C04T -2.694 -4.813 11.658 C.3 26 NIL_26    0.000
451 C04U -3.508 -6.063 7.680 C.2 26 NIL_26    0.000
452 N01D -2.281 -3.996 7.981 N.am 26 NIL_26    0.000
453 N01E -2.696 -5.755 12.791 N.am 26 NIL_26    0.000
454 O019 -4.094 -7.054 8.064 O.2 26 NIL_26    0.000
455 H052 -1.648 -4.569 11.457 H 26 NIL_26    0.000
456 H053 -3.167 -3.891 12.008 H 26 NIL_26    0.000
457 H054 -1.793 -5.798 8.829 H 26 NIL_26    0.000
458 H055 -3.771 -6.215 10.362 H 26 NIL_26    0.000
459 H056 -4.292 -4.585 10.139 H 26 NIL_26    0.000
460 H057 -3.250 -6.595 12.732 H 26 NIL_26    0.000
461 H058 -1.829 -3.314 8.570 H 26 NIL_26    0.000
462 C04V -1.295 0.716 1.014 C.3 27 NIL_27    0.000
463 C04W -2.807 0.887 0.780 C.3 27 NIL_27    0.000
464 C04X -3.128 2.304 0.296 C.3 27 NIL_27    0.000
465 H059 -2.583 2.503 -0.629 H 27 NIL_27    0.000
466 H05A -4.200 2.384 0.101 H 27 NIL_27    0.000
467 H05B -3.147 0.187 0.020 H 27 NIL_27    0.000
468 H05C -3.345 0.672 1.707 H 27 NIL_27    0.000
469 H05D -0.953 1.404 1.788 H 27 NIL_27    0.000
470 H05E -0.743 0.924 0.097 H 27 NIL_27    0.000
471 H05F -1.070 -0.304 1.333 H 27 NIL_27    0.000
472 C04Y -1.898 -5.439 -10.065 C.3 28 NIL_28    0.000
473 C04Z -0.380 -5.468 -9.837 C.3 28 NIL_28    0.000
474 C050 -0.088 -6.175 -8.518 C.3 28 NIL_28    0.000
475 H05G -0.503 -6.989 -8.260 H 28 NIL_28    0.000
476 H05H 0.442 -6.001 -7.958 H 28 NIL_28    0.000
477 H05I 1.005 -6.140 -8.295 H 28 NIL_28    0.000
478 H05J 0.069 -4.534 -10.009 H 28 NIL_28    0.000
479 H05K 0.070 -6.205 -10.579 H 28 NIL_28    0.000
480 H05L -2.299 -5.014 -10.803 H 28 NIL_28    0.000
481 H05M -2.326 -6.435 -10.024 H 28 NIL_28    0.000
482 N01F 6.667 -0.964 -4.118 N.am 29 NIL_29    0.000
483 C051 5.293 -0.954 -4.699 C.3 29 NIL_29    0.000
484 C052 4.737 -2.312 -5.177 C.3 29 NIL_29    0.000
485 C053 5.284 -0.341 -6.202 C.3 29 NIL_29    0.000
486 C054 4.297 -0.632 -3.513 C.2 29 NIL_29    0.000
487 C055 4.287 -2.121 -6.660 C.3 29 NIL_29    0.000
488 N01G 5.315 -1.447 -7.298 N.am 29 NIL_29    0.000
489 O01A 3.099 -0.730 -3.674 O.2 29 NIL_29    0.000
490 C056 3.337 -0.978 -6.975 C.2 29 NIL_29    0.000
491 O01B 2.371 -0.763 -6.279 O.2 29 NIL_29    0.000
492 H05N 3.999 -3.035 -7.187 H 29 NIL_29    0.000
493 H05O 4.404 0.264 -6.341 H 29 NIL_29    0.000
494 H05P 5.958 0.450 -6.221 H 29 NIL_29    0.000
495 H05Q 3.898 -2.627 -4.553 H 29 NIL_29    0.000
496 H05R 5.517 -3.074 -5.123 H 29 NIL_29    0.000
497 C057 -2.816 6.957 -9.653 C.3 30 NIL_30    0.000
498 C058 -1.507 7.759 -9.646 C.3 30 NIL_30    0.000
499 C059 -1.101 8.116 -8.211 C.3 30 NIL_30    0.000
500 H05S -0.955 7.209 -7.620 H 30 NIL_30    0.000
501 H05T -1.877 8.721 -7.737 H 30 NIL_30    0.000
502 H05U -0.167 8.683 -8.211 H 30 NIL_30    0.000
503 H05V -1.628 8.668 -10.236 H 30 NIL_30    0.000
504 H05W -0.723 7.315 -10.030 H 30 NIL_30    0.000
505 H05X -3.623 7.580 -9.261 H 30 NIL_30    0.000
506 H05Y -3.061 6.659 -10.675 H 30 NIL_30    0.000
507 C05A -2.027 -6.408 15.092 C.3 31 NIL_31    0.000
508 C05B -1.978 -5.453 13.906 C.2 31 NIL_31    0.000
509 O01C -1.380 -4.441 13.872 O.2 31 NIL_31    0.000
510 H05Z -3.059 -6.427 15.452 H 31 NIL_31    0.000
511 H060 -1.764 -7.402 14.718 H 31 NIL_31    0.000
512 C05C 9.034 3.165 17.932 C.3 32 NIL_32    0.000
513 C05D 9.643 3.905 16.732 C.3 32 NIL_32    0.000
514 H061 10.055 4.866 17.049 H 32 NIL_32    0.000
515 H062 8.882 4.090 15.973 H 32 NIL_32    0.000
516 H063 10.443 3.311 16.285 H 32 NIL_32    0.000
517 H064 9.811 2.942 18.666 H 32 NIL_32    0.000
518 H065 8.282 3.802 18.398 H 32 NIL_32    0.000
519 O01D -3.320 6.754 1.667 O.2 33 NIL_33    0.000
520 C05E -2.851 5.656 1.887 C.2 33 NIL_33    0.000
521 C05F -2.554 4.664 0.695 C.3 33 NIL_33    0.000
522 C05G -1.137 4.579 0.040 C.3 33 NIL_33    0.000
523 C05H -3.354 5.082 -0.630 C.3 33 NIL_33    0.000
524 N01H -2.760 3.316 1.285 N.am 33 NIL_33    0.000
525 C05I -1.258 4.505 -1.538 C.3 33 NIL_33    0.000
526 N01I -2.491 5.129 -1.880 N.am 33 NIL_33    0.000
527 C05J -1.291 3.188 -2.308 C.2 33 NIL_33    0.000
528 O01E -0.922 2.174 -1.780 O.2 33 NIL_33    0.000
529 H066 -0.443 5.084 -1.980 H 33 NIL_33    0.000
530 H067 -4.167 4.369 -0.797 H 33 NIL_33    0.000
531 H068 -3.792 6.072 -0.483 H 33 NIL_33    0.000
532 H069 -0.574 3.729 0.431 H 33 NIL_33    0.000
533 H06A -0.590 5.488 0.297 H 33 NIL_33    0.000
534 C05K -3.863 -6.859 5.394 C.3 34 NIL_34    0.000
535 C05L -2.550 -7.482 4.822 C.3 34 NIL_34    0.000
536 C05M -0.673 -6.905 4.014 C.3 34 NIL_34    0.000
537 H06B -0.709 -6.871 3.822 H 34 NIL_34    0.000
538 H06C -1.120 -5.843 5.168 H 34 NIL_34    0.000
539 H06D -2.060 -6.251 3.071 H 34 NIL_34    0.000
540 H06E -2.808 -8.230 4.075 H 34 NIL_34    0.000
541 H06F -2.025 -7.974 5.633 H 34 NIL_34    0.000
542 H06G -4.433 -6.420 4.555 H 34 NIL_34    0.000
543 H06H -4.445 -7.605 5.889 H 34 NIL_34    0.000
544 O01F 6.840 1.764 13.584 O.2 35 NIL_35    0.000
545 C05N 5.810 1.140 13.739 C.2 35 NIL_35    0.000
546 C05O 5.296 0.730 15.117 C.3 35 NIL_35    0.000
547 H06I 4.409 0.115 14.948 H 35 NIL_35    0.000
548 H06J 6.069 0.098 15.563 H 35 NIL_35    0.000
549 C05P -2.735 -2.091 -1.166 C.3 36 NIL_36    0.000
550 C05Q -3.321 -1.718 0.193 C.3 36 NIL_36    0.000
551 C05R -3.413 -2.587 -1.692 C.3 36 NIL_36    0.000
552 H06K -4.357 -2.804 -1.495 H 36 NIL_36    0.000
553 H06L -3.409 -3.433 -1.605 H 36 NIL_36    0.000
554 H06M -3.036 -3.084 -2.772 H 36 NIL_36    0.000
555 H06N -2.685 -0.969 0.656 H 36 NIL_36    0.000
556 H06O -4.328 -1.309 0.049 H 36 NIL_36    0.000
557 H06P -1.709 -2.043 -1.083 H 36 NIL_36    0.000
558 H06Q -2.715 -1.234 -1.825 H 36 NIL_36    0.000
559 C05S 0.950 7.074 16.766 C.2 37 NIL_37    0.000
560 C05T -0.179 6.750 17.710 C.3 37 NIL_37    0.000
561 O01G 0.865 7.958 15.939 O.2 37 NIL_37    0.000
562 N01J 0.272 6.110 18.932 N.am 37 NIL_37    0.000
563 C05U -1.006 7.971 18.153 C.3 37 NIL_37    0.000
564 C05V -0.650 6.491 20.020 C.3 37 NIL_37    0.000
565 C05W -1.667 7.535 19.475 C.3 37 NIL_37    0.000
566 N01K -2.999 6.947 19.259 N.am 37 NIL_37    0.000
567 H06R -1.761 8.382 20.159 H 37 NIL_37    0.000
568 H06S -0.068 6.933 20.833 H 37 NIL_37    0.000
569 H06T -1.177 5.606 20.386 H 37 NIL_37    0.000
570 H06U -1.740 8.271 17.402 H 37 NIL_37    0.000
571 H06V -0.332 8.809 18.347 H 37 NIL_37    0.000
572 H06W -0.832 6.042 17.193 H 37 NIL_37    0.000
573 H06X -2.990 5.991 18.929 H 37 NIL_37    0.000
574 C05X -4.836 4.917 15.013 C.3 38 NIL_38    0.000
575 C05Y -4.040 4.455 13.983 C.2 38 NIL_38    0.000
576 O01H -3.659 3.383 13.842 O.2 38 NIL_38    0.000
577 H06Y -4.088 6.258 14.885 H 38 NIL_38    0.000
578 H06Z -5.746 5.332 14.904 H 38 NIL_38    0.000
579 C05Z -1.960 1.979 -4.356 C.3 39 NIL_39    0.000
580 C060 -1.340 0.775 -3.630 C.3 39 NIL_39    0.000
581 C061 0.153 1.019 -3.355 C.3 39 NIL_39    0.000
582 H070 0.587 0.161 -2.842 H 39 NIL_39    0.000
583 H071 0.337 1.889 -2.761 H 39 NIL_39    0.000
584 H072 0.689 1.185 -4.286 H 39 NIL_39    0.000
585 H073 -1.452 -0.121 -4.241 H 39 NIL_39    0.000
586 H074 -1.866 0.606 -2.686 H 39 NIL_39    0.000
587 H075 -1.439 2.137 -5.303 H 39 NIL_39    0.000
588 H076 -3.011 1.773 -4.563 H 39 NIL_39    0.000
589 C062 -4.314 -0.248 -4.079 C.3 40 NIL_40    0.000
590 C063 -4.765 -1.617 -4.602 C.3 40 NIL_40    0.000
591 C064 -4.981 0.868 -4.895 C.3 40 NIL_40    0.000
592 H077 -4.677 1.846 -4.520 H 40 NIL_40    0.000
593 H078 -6.068 0.793 -4.822 H 40 NIL_40    0.000
594 H079 -4.697 0.791 -5.947 H 40 NIL_40    0.000
595 H07A -5.858 -1.662 -4.598 H 40 NIL_40    0.000
596 H07B -4.412 -1.752 -5.629 H 40 NIL_40    0.000
597 H07C -3.230 -0.164 -4.144 H 40 NIL_40    0.000
598 H07D -4.602 -0.147 -3.028 H 40 NIL_40    0.000
599 C065 7.661 -1.269 -5.141 C.3 41 NIL_41    0.000
600 C066 7.726 -0.146 -6.185 C.3 41 NIL_41    0.000
601 C067 8.849 -0.379 -7.189 C.3 41 NIL_41    0.000
602 H07E 9.812 -0.386 -6.676 H 41 NIL_41    0.000
603 H07F 8.863 0.415 -7.940 H 41 NIL_41    0.000
604 H07G 8.715 -1.336 -7.697 H 41 NIL_41    0.000
605 H07H 7.870 0.815 -5.684 H 41 NIL_41    0.000
606 H07I 6.981 -0.224 -6.848 H 41 NIL_41    0.000
607 H07J 7.404 -2.213 -5.627 H 41 NIL_41    0.000
608 H07K 8.640 -1.366 -4.663 H 41 NIL_41    0.000
609 C068 -3.877 6.383 16.569 C.3 42 NIL_42    0.000
610 C069 -4.984 7.398 16.654 C.3 42 NIL_42    0.000
611 H07L -4.510 8.307 17.031 H 42 NIL_42    0.000
612 H07M -5.481 7.622 15.706 H 42 NIL_42    0.000
613 H07N -4.115 5.881 16.993 H 42 NIL_42    0.000
614 H07O -3.353 6.229 17.226 H 42 NIL_42    0.000
615 H07P -3.113 6.693 15.762 H 42 NIL_42    0.000
616 C06A -1.583 -10.920 18.066 C.3 43 NIL_43    0.000
617 C06B -1.956 -9.753 18.991 C.3 43 NIL_43    0.000
618 H07Q -2.572 -10.118 19.817 H 43 NIL_43    0.000
619 H07R -1.044 -9.313 19.399 H 43 NIL_43    0.000
620 H07S -2.483 -11.375 17.647 H 43 NIL_43    0.000
621 H07T -1.033 -11.682 18.623 H 43 NIL_43    0.000
622 H07U -0.954 -10.569 17.247 H 43 NIL_43    0.000
623 C06C 1.607 0.799 -8.949 C.3 44 NIL_44    0.000
624 C06D 2.838 1.107 -8.084 C.3 44 NIL_44    0.000
625 C06E 0.823 -0.386 -8.366 C.3 44 NIL_44    0.000
626 H07V 1.457 -1.276 -8.322 H 44 NIL_44    0.000
627 H07W -0.049 -0.611 -8.986 H 44 NIL_44    0.000
628 H07X 0.479 -0.154 -7.355 H 44 NIL_44    0.000
629 H07Y 3.405 1.926 -8.531 H 44 NIL_44    0.000
630 H07Z 2.513 1.404 -7.084 H 44 NIL_44    0.000
631 H080 1.705 0.590 -9.814 H 44 NIL_44    0.000
632 H081 0.961 1.675 -9.003 H 44 NIL_44    0.000
633 C06F 6.027 2.050 5.386 C.3 45 NIL_45    0.000
634 C06G 4.801 2.699 4.733 C.3 45 NIL_45    0.000
635 C06H 2.365 3.760 3.013 C.3 45 NIL_45    0.000
636 H082 3.306 0.838 5.307 H 45 NIL_45    0.000
637 H083 4.260 1.452 3.531 H 45 NIL_45    0.000
638 H084 3.350 1.902 3.603 H 45 NIL_45    0.000
639 H085 4.893 3.481 4.136 H 45 NIL_45    0.000
640 H086 4.115 3.026 5.682 H 45 NIL_45    0.000
641 H087 6.682 1.800 4.542 H 45 NIL_45    0.000
642 H088 6.594 2.949 5.900 H 45 NIL_45    0.000
@<TRIPOS>BOND
1 1 5 1 
2 2 1 1 
3 2 6 1 
4 2 40 1 
5 2 41 1 
6 3 1 1 
7 3 38 1 
8 3 39 1 
9 3 7 1 
10 4 1 1 
11 4 8 1 
12 6 37 1 
13 7 6 1 
14 8 35 1 
15 8 36 1 
16 9 5 2 
17 10 6 1 
18 11 8 1 
19 11 33 1 
20 11 34 1 
21 12 10 2 
22 13 10 1 
23 13 42 1 
24 13 15 1 
25 14 11 1 
26 14 30 1 
27 14 31 1 
28 14 32 1 
29 15 28 1 
30 15 29 1 
31 16 15 1 
32 17 16 2 
33 17 27 1 
34 18 16 1 
35 18 26 1 
36 19 17 1 
37 19 25 1 
38 20 18 2 
39 21 19 2 
40 21 20 1 
41 22 21 1 
42 23 22 2 
43 24 20 1 
44 44 43 2 
45 44 45 1 
46 46 45 1 
47 46 56 1 
48 46 57 1 
49 47 45 1 
50 47 55 1 
51 48 45 1 
52 49 46 1 
53 50 47 1 
54 50 49 1 
55 51 49 1 
56 52 51 2 
57 53 49 1 
58 54 47 1 
59 59 58 1 
60 59 73 1 
61 60 58 2 
62 61 59 1 
63 62 59 1 
64 62 71 1 
65 62 72 1 
66 63 61 1 
67 63 69 1 
68 63 70 1 
69 64 62 1 
70 64 63 1 
71 64 65 1 
72 64 66 1 
73 67 65 1 
74 68 66 2 
75 75 74 1 
76 75 85 1 
77 76 75 1 
78 77 76 1 
79 78 77 1 
80 78 339 1 
81 79 77 1 
82 79 86 1 
83 79 340 1 
84 80 78 2 
85 81 77 1 
86 82 76 1 
87 83 76 1 
88 84 75 1 
89 87 74 1 
90 89 88 1 
91 89 102 1 
92 90 88 2 
93 91 89 1 
94 92 89 1 
95 92 100 1 
96 92 101 1 
97 93 91 1 
98 93 98 1 
99 93 99 1 
100 94 92 1 
101 94 93 1 
102 94 95 1 
103 94 96 1 
104 95 223 1 
105 96 222 1 
106 97 96 2 
107 103 116 1 
108 103 105 1 
109 103 106 1 
110 104 66 1 
111 104 103 1 
112 104 107 1 
113 105 115 1 
114 106 65 1 
115 108 107 1 
116 108 105 1 
117 109 106 2 
118 110 108 1 
119 110 117 1 
120 111 108 1 
121 112 107 1 
122 113 107 1 
123 114 105 1 
124 118 131 1 
125 118 132 1 
126 119 118 1 
127 119 130 1 
128 120 118 1 
129 120 125 1 
130 121 119 1 
131 122 119 1 
132 122 126 2 
133 123 120 1 
134 123 121 1 
135 123 128 1 
136 123 129 1 
137 124 120 1 
138 124 127 2 
139 124 333 1 
140 125 135 1 
141 125 335 1 
142 133 140 1 
143 133 141 1 
144 133 142 1 
145 134 133 1 
146 134 135 1 
147 134 138 1 
148 134 139 1 
149 136 135 1 
150 137 135 1 
151 143 156 1 
152 143 157 1 
153 143 145 1 
154 144 143 1 
155 144 146 1 
156 144 147 1 
157 144 148 1 
158 145 215 1 
159 146 155 1 
160 149 146 1 
161 149 145 1 
162 150 148 2 
163 151 149 1 
164 151 220 1 
165 152 151 2 
166 153 149 1 
167 154 146 1 
168 159 158 1 
169 159 198 1 
170 160 158 2 
171 161 158 1 
172 161 199 1 
173 162 22 1 
174 162 159 1 
175 162 165 1 
176 163 159 1 
177 163 196 1 
178 163 197 1 
179 163 166 1 
180 164 161 1 
181 164 194 1 
182 164 195 1 
183 164 167 1 
184 165 192 1 
185 165 193 1 
186 166 165 1 
187 168 166 1 
188 168 367 1 
189 169 166 1 
190 169 366 1 
191 170 167 2 
192 170 191 1 
193 171 167 1 
194 171 175 2 
195 171 190 1 
196 172 168 1 
197 172 176 1 
198 172 188 1 
199 172 189 1 
200 173 169 2 
201 174 170 1 
202 174 187 1 
203 174 177 2 
204 175 186 1 
205 176 185 1 
206 177 175 1 
207 178 176 1 
208 179 177 1 
209 179 232 1 
210 180 179 2 
211 181 178 1 
212 182 178 1 
213 183 178 1 
214 184 176 1 
215 200 213 1 
216 201 200 1 
217 201 293 1 
218 202 200 1 
219 202 205 1 
220 202 211 1 
221 202 212 1 
222 203 200 1 
223 203 206 2 
224 203 292 1 
225 204 201 1 
226 204 205 1 
227 204 209 1 
228 204 210 1 
229 207 205 1 
230 207 306 1 
231 208 205 1 
232 214 207 1 
233 216 215 1 
234 217 215 2 
235 218 216 1 
236 218 228 1 
237 218 229 1 
238 219 216 1 
239 219 226 1 
240 219 227 1 
241 220 216 1 
242 221 218 1 
243 221 225 1 
244 222 221 1 
245 222 219 1 
246 223 221 1 
247 224 223 2 
248 230 269 1 
249 230 270 1 
250 231 230 1 
251 231 235 1 
252 232 230 1 
253 232 236 1 
254 233 231 1 
255 233 236 1 
256 233 267 1 
257 233 268 1 
258 234 231 1 
259 234 237 1 
260 236 266 1 
261 237 264 1 
262 237 265 1 
263 238 235 2 
264 239 236 1 
265 240 237 1 
266 240 262 1 
267 240 263 1 
268 241 239 2 
269 242 239 1 
270 242 271 1 
271 243 240 1 
272 243 259 1 
273 243 260 1 
274 243 261 1 
275 244 242 1 
276 244 245 1 
277 244 257 1 
278 244 258 1 
279 246 245 2 
280 246 256 1 
281 247 245 1 
282 247 255 1 
283 248 246 1 
284 249 247 2 
285 250 248 2 
286 250 249 1 
287 251 7 1 
288 251 250 1 
289 252 251 2 
290 253 249 1 
291 254 248 1 
292 272 285 1 
293 272 395 1 
294 273 272 1 
295 273 283 1 
296 273 275 1 
297 274 273 1 
298 274 276 2 
299 274 394 1 
300 277 275 1 
301 278 277 1 
302 279 277 1 
303 280 277 1 
304 281 275 1 
305 282 275 1 
306 284 278 1 
307 286 300 1 
308 286 301 1 
309 287 286 1 
310 287 299 1 
311 288 286 1 
312 289 287 1 
313 289 407 1 
314 290 287 1 
315 290 403 1 
316 291 288 1 
317 291 289 1 
318 291 297 1 
319 291 298 1 
320 292 288 1 
321 292 295 1 
322 293 288 1 
323 293 296 2 
324 294 290 2 
325 302 315 1 
326 302 316 1 
327 303 302 1 
328 303 314 1 
329 303 305 1 
330 303 306 1 
331 304 302 1 
332 304 307 1 
333 304 308 1 
334 304 309 1 
335 307 305 1 
336 308 58 1 
337 309 61 1 
338 310 306 2 
339 311 309 2 
340 312 307 1 
341 313 307 1 
342 317 331 1 
343 318 317 1 
344 318 5 1 
345 319 317 1 
346 319 329 1 
347 319 330 1 
348 320 4 1 
349 320 317 1 
350 321 318 1 
351 321 327 1 
352 321 328 1 
353 322 321 1 
354 322 319 1 
355 322 325 1 
356 323 320 2 
357 324 322 1 
358 324 51 1 
359 325 50 1 
360 326 325 2 
361 332 335 1 
362 332 346 1 
363 333 332 1 
364 333 336 1 
365 334 332 1 
366 334 344 1 
367 334 345 1 
368 334 337 1 
369 337 336 1 
370 338 335 2 
371 339 337 1 
372 340 337 1 
373 341 340 2 
374 342 336 1 
375 343 336 1 
376 348 347 1 
377 348 362 1 
378 349 347 1 
379 349 360 1 
380 349 361 1 
381 350 348 1 
382 350 358 1 
383 350 359 1 
384 351 348 1 
385 352 349 1 
386 352 350 1 
387 352 355 1 
388 353 351 2 
389 354 352 1 
390 354 356 1 
391 357 355 2 
392 363 365 1 
393 363 376 1 
394 363 377 1 
395 364 363 1 
396 364 366 1 
397 364 367 1 
398 364 375 1 
399 368 365 1 
400 368 366 1 
401 369 365 1 
402 370 365 1 
403 371 367 2 
404 372 370 2 
405 373 368 1 
406 374 368 1 
407 378 385 1 
408 378 386 1 
409 378 387 1 
410 379 378 1 
411 380 379 1 
412 380 394 1 
413 381 380 1 
414 382 380 1 
415 383 379 1 
416 384 379 1 
417 388 401 1 
418 388 402 1 
419 389 388 1 
420 389 400 1 
421 390 388 1 
422 390 395 1 
423 391 389 1 
424 392 389 1 
425 392 396 2 
426 393 390 1 
427 393 391 1 
428 393 398 1 
429 393 399 1 
430 394 390 1 
431 397 395 2 
432 404 403 1 
433 404 405 1 
434 404 406 1 
435 404 407 1 
436 408 405 1 
437 409 408 1 
438 409 406 1 
439 410 407 2 
440 411 408 1 
441 412 411 2 
442 413 408 1 
443 414 406 1 
444 415 406 1 
445 416 405 1 
446 417 405 1 
447 418 91 1 
448 419 418 1 
449 420 418 2 
450 421 419 1 
451 421 431 1 
452 421 432 1 
453 422 419 1 
454 422 425 1 
455 422 429 1 
456 422 430 1 
457 423 419 1 
458 423 472 1 
459 423 88 1 
460 424 421 1 
461 424 425 1 
462 424 426 1 
463 424 428 1 
464 425 235 1 
465 426 234 1 
466 427 426 2 
467 433 435 1 
468 433 436 1 
469 433 437 1 
470 434 433 1 
471 434 446 1 
472 434 447 1 
473 434 438 1 
474 435 445 1 
475 436 351 1 
476 436 546 1 
477 437 347 1 
478 439 438 1 
479 439 435 1 
480 439 512 1 
481 440 437 2 
482 441 110 1 
483 441 438 1 
484 442 441 2 
485 443 438 1 
486 444 435 1 
487 448 458 1 
488 448 459 1 
489 449 448 1 
490 449 457 1 
491 450 448 1 
492 450 455 1 
493 450 456 1 
494 451 147 1 
495 451 449 1 
496 452 148 1 
497 452 449 1 
498 452 461 1 
499 453 450 1 
500 453 508 1 
501 453 460 1 
502 454 451 2 
503 462 469 1 
504 462 470 1 
505 462 471 1 
506 463 462 1 
507 463 467 1 
508 463 468 1 
509 464 463 1 
510 464 524 1 
511 464 465 1 
512 464 466 1 
513 472 480 1 
514 472 481 1 
515 473 472 1 
516 473 478 1 
517 473 479 1 
518 474 473 1 
519 474 475 1 
520 474 476 1 
521 474 477 1 
522 482 122 1 
523 482 599 1 
524 483 482 1 
525 483 485 1 
526 483 486 1 
527 484 483 1 
528 484 495 1 
529 484 496 1 
530 484 487 1 
531 486 121 1 
532 488 487 1 
533 488 485 1 
534 488 370 1 
535 489 486 2 
536 490 487 1 
537 490 369 1 
538 491 490 2 
539 492 487 1 
540 493 485 1 
541 494 485 1 
542 497 324 1 
543 497 505 1 
544 497 506 1 
545 498 497 1 
546 499 498 1 
547 500 499 1 
548 501 499 1 
549 502 499 1 
550 503 498 1 
551 504 498 1 
552 507 308 1 
553 508 507 1 
554 509 508 2 
555 510 507 1 
556 511 507 1 
557 512 517 1 
558 512 518 1 
559 513 512 1 
560 513 515 1 
561 513 516 1 
562 514 513 1 
563 520 391 1 
564 520 519 2 
565 521 520 1 
566 522 521 1 
567 522 525 1 
568 522 532 1 
569 522 533 1 
570 523 521 1 
571 523 526 1 
572 523 530 1 
573 523 531 1 
574 524 392 1 
575 524 521 1 
576 526 44 1 
577 526 525 1 
578 527 48 1 
579 527 525 1 
580 528 527 2 
581 529 525 1 
582 534 147 1 
583 534 543 1 
584 534 535 1 
585 534 542 1 
586 536 535 1 
587 537 536 1 
588 538 536 1 
589 539 536 1 
590 540 535 1 
591 541 535 1 
592 544 545 2 
593 545 74 1 
594 546 545 1 
595 547 546 1 
596 548 546 1 
597 549 557 1 
598 549 558 1 
599 550 220 1 
600 550 549 1 
601 550 555 1 
602 550 556 1 
603 551 549 1 
604 552 551 1 
605 553 551 1 
606 554 551 1 
607 559 354 1 
608 560 559 1 
609 560 572 1 
610 561 559 2 
611 562 355 1 
612 562 560 1 
613 563 560 1 
614 563 565 1 
615 563 570 1 
616 563 571 1 
617 564 562 1 
618 564 565 1 
619 564 568 1 
620 564 569 1 
621 566 411 1 
622 566 565 1 
623 567 565 1 
624 573 566 1 
625 574 403 1 
626 574 575 1 
627 574 577 1 
628 574 578 1 
629 575 278 1 
630 576 575 2 
631 579 48 1 
632 579 587 1 
633 579 588 1 
634 580 579 1 
635 580 585 1 
636 580 586 1 
637 581 580 1 
638 582 581 1 
639 583 581 1 
640 584 581 1 
641 589 597 1 
642 589 598 1 
643 590 95 1 
644 590 589 1 
645 590 595 1 
646 590 596 1 
647 591 589 1 
648 592 591 1 
649 593 591 1 
650 594 591 1 
651 599 607 1 
652 599 608 1 
653 600 599 1 
654 600 605 1 
655 600 606 1 
656 601 600 1 
657 602 601 1 
658 603 601 1 
659 604 601 1 
660 609 615 1 
661 610 409 1 
662 610 609 1 
663 611 610 1 
664 612 610 1 
665 613 609 1 
666 614 609 1 
667 617 305 1 
668 617 616 1 
669 618 617 1 
670 619 617 1 
671 620 616 1 
672 621 616 1 
673 622 616 1 
674 623 625 1 
675 623 631 1 
676 623 632 1 
677 624 369 1 
678 624 623 1 
679 624 629 1 
680 624 630 1 
681 626 625 1 
682 627 625 1 
683 628 625 1 
684 633 339 1 
685 633 641 1 
686 633 642 1 
687 634 633 1 
688 634 635 1 
689 634 639 1 
690 634 640 1 
691 636 635 1 
692 637 635 1 
693 638 635 1 
@<TRIPOS>SUBSTRUCTURE
1 NIL_1 1 RESIDUE 1 A NIL 1
2 NIL_2 43 RESIDUE 1 A NIL 1
3 NIL_3 58 RESIDUE 1 A NIL 1
4 NIL_4 74 RESIDUE 1 A NIL 1
5 NIL_5 88 RESIDUE 1 A NIL 1
6 NIL_6 103 RESIDUE 1 A NIL 1
7 NIL_7 118 RESIDUE 1 A NIL 1
8 NIL_8 133 RESIDUE 1 A NIL 1
9 NIL_9 143 RESIDUE 1 A NIL 1
10 NIL_10 158 RESIDUE 1 A NIL 1
11 NIL_11 200 RESIDUE 1 A NIL 1
12 NIL_12 215 RESIDUE 1 A NIL 1
13 NIL_13 230 RESIDUE 1 A NIL 1
14 NIL_14 272 RESIDUE 1 A NIL 1
15 NIL_15 286 RESIDUE 1 A NIL 1
16 NIL_16 302 RESIDUE 1 A NIL 1
17 NIL_17 317 RESIDUE 1 A NIL 1
18 NIL_18 332 RESIDUE 1 A NIL 1
19 NIL_19 347 RESIDUE 1 A NIL 1
20 NIL_20 363 RESIDUE 1 A NIL 1
21 NIL_21 378 RESIDUE 1 A NIL 1
22 NIL_22 388 RESIDUE 1 A NIL 1
23 NIL_23 403 RESIDUE 1 A NIL 1
24 NIL_24 418 RESIDUE 1 A NIL 1
25 NIL_25 433 RESIDUE 1 A NIL 1
26 NIL_26 448 RESIDUE 1 A NIL 1
27 NIL_27 462 RESIDUE 1 A NIL 1
28 NIL_28 472 RESIDUE 1 A NIL 1
29 NIL_29 482 RESIDUE 1 A NIL 1
30 NIL_30 497 RESIDUE 1 A NIL 1
31 NIL_31 507 RESIDUE 1 A NIL 1
32 NIL_32 512 RESIDUE 1 A NIL 1
33 NIL_33 519 RESIDUE 1 A NIL 1
34 NIL_34 534 RESIDUE 1 A NIL 1
35 NIL_35 544 RESIDUE 1 A NIL 1
36 NIL_36 549 RESIDUE 1 A NIL 1
37 NIL_37 559 RESIDUE 1 A NIL 1
38 NIL_38 574 RESIDUE 1 A NIL 1
39 NIL_39 579 RESIDUE 1 A NIL 1
40 NIL_40 589 RESIDUE 1 A NIL 1
41 NIL_41 599 RESIDUE 1 A NIL 1
42 NIL_42 609 RESIDUE 1 A NIL 1
43 NIL_43 616 RESIDUE 1 A NIL 1
44 NIL_44 623 RESIDUE 1 A NIL 1
45 NIL_45 633 RESIDUE 1 A NIL 1
