@<TRIPOS>MOLECULE
NIL
4200 4536 294 0 0
POLYMER
CHARGES


@<TRIPOS>ATOM
1 C_1479 -18.0225 6.04019 1.20371 C.3 1 NIL_1    0.000
2 C_1478 -19.492 6.236 0.759 C.3 1 NIL_1    0.000
3 C_3530 -17.520 4.594 1.050 C.3 1 NIL_1    0.000
4 H_35301 -18.131 3.902 1.633 H 1 NIL_1    0.000
5 H_35302 -16.490 4.523 1.408 H 1 NIL_1    0.000
6 H_35303 -17.535 4.289 0.002 H 1 NIL_1    0.000
7 H_14781 -19.711 7.307 0.779 H 1 NIL_1    0.000
8 H_14782 -19.584 5.932 -0.281 H 1 NIL_1    0.000
9 H_14791 -17.897 6.348 2.244 H 1 NIL_1    0.000
10 H_14792 -17.388 6.697 0.605 H 1 NIL_1    0.000
11 C_1303 -21.172 6.184 -9.175 C.3 2 NIL_2    0.000
12 C_1302 -21.896 5.676 -10.426 C.3 2 NIL_2    0.000
13 C_1304 -20.606 4.912 -8.486 C.3 2 NIL_2    0.000
14 N -21.137 4.514 -10.829 N.am 2 NIL_2    0.000
15 C_1307 -22.101 6.746 -11.471 C.2 2 NIL_2    0.000
16 C_1305 -20.747 3.824 -9.602 C.3 2 NIL_2    0.000
17 N -19.194 5.193 -8.050 N.am 2 NIL_2    0.000
18 C_1316 -21.533 4.553 -7.312 C.2 2 NIL_2    0.000
19 O -22.700 7.762 -11.164 O.2 2 NIL_2    0.000
20 O -22.566 3.922 -7.437 O.2 2 NIL_2    0.000
21 H_13051 -19.831 3.265 -9.755 H 2 NIL_2    0.000
22 H_13052 -21.532 3.099 -9.376 H 2 NIL_2    0.000
23 H_1302 -22.895 5.327 -10.147 H 2 NIL_2    0.000
24 H_13031 -20.359 6.846 -9.491 H 2 NIL_2    0.000
25 H_13032 -21.835 6.759 -8.524 H 2 NIL_2    0.000
26 O -23.810 -4.549 1.057 O.2 3 NIL_3    0.000
27 C_2478 -22.655 -4.807 1.339 C.2 3 NIL_3    0.000
28 C_2474 -21.539 -5.011 0.296 C.3 3 NIL_3    0.000
29 C_2473 -20.835 -3.638 0.129 C.3 3 NIL_3    0.000
30 C_2475 -22.166 -5.158 -1.139 C.3 3 NIL_3    0.000
31 N -20.581 -6.076 0.775 N.am 3 NIL_3    0.000
32 C_2472 -21.843 -2.858 -0.727 C.3 3 NIL_3    0.000
33 N -22.297 -3.808 -1.721 N.am 3 NIL_3    0.000
34 C_2477 -21.445 -1.502 -1.245 C.2 3 NIL_3    0.000
35 O -20.651 -0.794 -0.655 O.2 3 NIL_3    0.000
36 H_2472 -22.711 -2.629 -0.107 H 3 NIL_3    0.000
37 H_24751 -21.536 -5.729 -1.820 H 3 NIL_3    0.000
38 H_24752 -23.147 -5.642 -1.092 H 3 NIL_3    0.000
39 H_24731 -19.886 -3.743 -0.404 H 3 NIL_3    0.000
40 H_24732 -20.655 -3.132 1.076 H 3 NIL_3    0.000
41 O -17.024 -1.147 -2.874 O.2 4 NIL_4    0.000
42 C_2958 -15.835 -0.935 -2.722 C.2 4 NIL_4    0.000
43 C_2946 -14.774 -1.371 -3.754 C.3 4 NIL_4    0.000
44 C_2945 -15.176 -2.746 -4.381 C.3 4 NIL_4    0.000
45 C_2947 -14.924 -0.405 -4.960 C.3 4 NIL_4    0.000
46 N -13.357 -1.330 -3.225 N.am 4 NIL_4    0.000
47 C_2944 -14.888 -2.608 -5.887 C.3 4 NIL_4    0.000
48 N -15.072 -1.201 -6.186 N.am 4 NIL_4    0.000
49 C_2949 -15.655 -3.535 -6.809 C.2 4 NIL_4    0.000
50 O -15.990 -4.642 -6.430 O.2 4 NIL_4    0.000
51 H_2944 -13.840 -2.834 -6.089 H 4 NIL_4    0.000
52 H_29471 -15.818 0.216 -4.853 H 4 NIL_4    0.000
53 H_29472 -14.058 0.257 -5.046 H 4 NIL_4    0.000
54 H_29451 -16.244 -2.944 -4.267 H 4 NIL_4    0.000
55 H_29452 -14.651 -3.590 -3.930 H 4 NIL_4    0.000
56 C_2849 -14.936 0.386 5.570 C.3 5 NIL_5    0.000
57 C_2848 -14.809 -1.065 4.997 C.3 5 NIL_5    0.000
58 C_2850 -14.976 1.285 4.306 C.3 5 NIL_5    0.000
59 N -13.800 0.798 6.462 N.am 5 NIL_5    0.000
60 C_2855 -16.313 0.540 6.222 C.2 5 NIL_5    0.000
61 C_2847 -14.556 -0.898 3.488 C.3 5 NIL_5    0.000
62 N -15.074 0.412 3.136 N.am 5 NIL_5    0.000
63 O -17.332 0.089 5.736 O.2 5 NIL_5    0.000
64 C_2852 -15.089 -2.016 2.614 C.2 5 NIL_5    0.000
65 O -15.140 -3.159 3.028 O.2 5 NIL_5    0.000
66 H_2847 -13.478 -0.869 3.307 H 5 NIL_5    0.000
67 H_28501 -15.827 1.972 4.330 H 5 NIL_5    0.000
68 H_28502 -14.056 1.871 4.220 H 5 NIL_5    0.000
69 H_28481 -15.724 -1.641 5.152 H 5 NIL_5    0.000
70 H_28482 -14.012 -1.648 5.453 H 5 NIL_5    0.000
71 C_3654 -15.386 3.410 -16.312 C.2 6 NIL_6    0.000
72 C_3652 -15.126 2.108 -16.178 C.2 6 NIL_6    0.000
73 C_3656 -16.147 3.852 -17.310 C.2 6 NIL_6    0.000
74 C_3574 -15.626 1.207 -17.034 C.2 6 NIL_6    0.000
75 C_3658 -16.610 2.973 -18.203 C.2 6 NIL_6    0.000
76 C_3668 -16.570 5.306 -17.365 C.3 6 NIL_6    0.000
77 C_2831 -15.454 -0.212 -16.890 C.2 6 NIL_6    0.000
78 C_3660 -16.355 1.671 -18.065 C.2 6 NIL_6    0.000
79 NH -17.806 5.646 -16.623 N.am 6 NIL_6    0.000
80 O -15.417 -0.839 -17.933 O.2 6 NIL_6    0.000
81 C_1297 -18.710 4.785 -16.080 C.2 6 NIL_6    0.000
82 C_1292 -19.916 5.437 -15.424 C.3 6 NIL_6    0.000
83 O -18.583 3.575 -16.063 O.2 6 NIL_6    0.000
84 N -21.164 4.642 -15.551 N.am 6 NIL_6    0.000
85 C_1293 -19.617 5.602 -13.920 C.3 6 NIL_6    0.000
86 C_1295 -21.757 4.486 -14.215 C.3 6 NIL_6    0.000
87 C_1294 -20.933 5.279 -13.174 C.3 6 NIL_6    0.000
88 N -21.636 6.537 -12.735 N.am 6 NIL_6    0.000
89 C_1306 -20.632 4.271 -12.056 C.2 6 NIL_6    0.000
90 C_3544 -22.021 7.494 -13.819 C.3 6 NIL_6    0.000
91 O -19.971 3.266 -12.254 O.2 6 NIL_6    0.000
92 C_3546 -21.079 8.701 -14.071 C.3 6 NIL_6    0.000
93 C_3548 -20.845 9.596 -12.838 C.3 6 NIL_6    0.000
94 H_35481 -20.362 9.038 -12.035 H 6 NIL_6    0.000
95 H_35482 -21.790 10.008 -12.472 H 6 NIL_6    0.000
96 H_35483 -20.192 10.433 -13.101 H 6 NIL_6    0.000
97 H_35461 -21.526 9.315 -14.857 H 6 NIL_6    0.000
98 H_35462 -20.119 8.372 -14.463 H 6 NIL_6    0.000
99 H_35441 -23.015 7.890 -13.591 H 6 NIL_6    0.000
100 H_35442 -22.133 6.964 -14.765 H 6 NIL_6    0.000
101 H_12951 -21.778 3.419 -13.976 H 6 NIL_6    0.000
102 H_12952 -22.781 4.863 -14.208 H 6 NIL_6    0.000
103 H_12931 -18.825 4.904 -13.635 H 6 NIL_6    0.000
104 H_12932 -19.229 6.590 -13.674 H 6 NIL_6    0.000
105 H_1292 -20.075 6.415 -15.889 H 6 NIL_6    0.000
106 H_3660 -16.798 0.990 -18.788 H 6 NIL_6    0.000
107 H_36681 -15.767 5.929 -16.964 H 6 NIL_6    0.000
108 H_36682 -16.713 5.605 -18.408 H 6 NIL_6    0.000
109 H_3658 -17.244 3.310 -19.020 H 6 NIL_6    0.000
110 H_3652 -14.492 1.828 -15.355 H 6 NIL_6    0.000
111 H_3654 -14.994 4.110 -15.577 H 6 NIL_6    0.000
112 HH -18.006 6.632 -16.546 H 6 NIL_6    0.000
113 N -23.673 -1.639 -5.566 N.am 7 NIL_7    0.000
114 C_2462 -22.339 -1.086 -5.682 C.3 7 NIL_7    0.000
115 C_2465 -23.929 -1.713 -4.116 C.3 7 NIL_7    0.000
116 C_2463 -21.546 -1.864 -4.620 C.3 7 NIL_7    0.000
117 C_2467 -21.727 -1.075 -7.064 C.2 7 NIL_7    0.000
118 C_2464 -22.553 -2.025 -3.437 C.3 7 NIL_7    0.000
119 O -20.599 -0.648 -7.220 O.2 7 NIL_7    0.000
120 N -22.136 -1.084 -2.339 N.am 7 NIL_7    0.000
121 C_2476 -22.612 -3.506 -3.004 C.2 7 NIL_7    0.000
122 O -22.941 -4.388 -3.773 O.2 7 NIL_7    0.000
123 H_24631 -21.253 -2.835 -5.029 H 7 NIL_7    0.000
124 H_24632 -20.635 -1.335 -4.333 H 7 NIL_7    0.000
125 H_24651 -24.669 -2.484 -3.885 H 7 NIL_7    0.000
126 H_24652 -24.348 -0.758 -3.798 H 7 NIL_7    0.000
127 H_2462 -22.397 -0.031 -5.402 H 7 NIL_7    0.000
128 O -24.184 -5.523 -16.346 O.2 8 NIL_8    0.000
129 C_2349 -23.346 -5.111 -15.567 C.2 8 NIL_8    0.000
130 C_2378 -21.960 -5.128 -15.919 C.2 8 NIL_8    0.000
131 C_3627 -21.543 -5.780 -17.012 C.2 8 NIL_8    0.000
132 C_3635 -21.049 -4.461 -15.194 C.2 8 NIL_8    0.000
133 C_3629 -20.260 -5.746 -17.375 C.2 8 NIL_8    0.000
134 C_3633 -19.771 -4.422 -15.566 C.2 8 NIL_8    0.000
135 C_3631 -19.360 -5.057 -16.667 C.2 8 NIL_8    0.000
136 C_3643 -17.922 -5.010 -17.155 C.3 8 NIL_8    0.000
137 NH -16.926 -4.270 -16.373 N.am 8 NIL_8    0.000
138 C_2832 -16.843 -2.921 -16.327 C.2 8 NIL_8    0.000
139 C_2827 -15.593 -2.394 -15.634 C.3 8 NIL_8    0.000
140 O -17.710 -2.206 -16.794 O.2 8 NIL_8    0.000
141 N -15.393 -0.925 -15.717 N.am 8 NIL_8    0.000
142 C_2828 -15.591 -2.807 -14.144 C.3 8 NIL_8    0.000
143 C_2830 -15.336 -0.406 -14.339 C.3 8 NIL_8    0.000
144 C_2829 -15.112 -1.569 -13.343 C.3 8 NIL_8    0.000
145 N -13.658 -1.692 -12.938 N.am 8 NIL_8    0.000
146 C_2841 -16.091 -1.342 -12.175 C.2 8 NIL_8    0.000
147 C_3522 -12.696 -2.140 -13.991 C.3 8 NIL_8    0.000
148 O -17.297 -1.296 -12.340 O.2 8 NIL_8    0.000
149 C_3524 -11.516 -1.188 -14.316 C.3 8 NIL_8    0.000
150 C_3526 -11.942 0.147 -14.950 C.3 8 NIL_8    0.000
151 H_35261 -12.591 -0.021 -15.812 H 8 NIL_8    0.000
152 H_35262 -11.063 0.697 -15.291 H 8 NIL_8    0.000
153 H_35263 -12.460 0.772 -14.223 H 8 NIL_8    0.000
154 H_35241 -10.859 -1.702 -15.023 H 8 NIL_8    0.000
155 H_35242 -10.919 -0.989 -13.424 H 8 NIL_8    0.000
156 H_35221 -13.196 -2.331 -14.933 H 8 NIL_8    0.000
157 H_35222 -12.274 -3.094 -13.662 H 8 NIL_8    0.000
158 H_28301 -16.277 0.117 -14.146 H 8 NIL_8    0.000
159 H_28302 -14.519 0.289 -14.200 H 8 NIL_8    0.000
160 H_28281 -16.601 -3.103 -13.850 H 8 NIL_8    0.000
161 H_28282 -14.956 -3.680 -13.970 H 8 NIL_8    0.000
162 H_2827 -14.750 -2.875 -16.139 H 8 NIL_8    0.000
163 H_36431 -17.555 -6.036 -17.246 H 8 NIL_8    0.000
164 H_36432 -17.919 -4.580 -18.161 H 8 NIL_8    0.000
165 H_3633 -19.077 -3.847 -14.958 H 8 NIL_8    0.000
166 H_3629 -19.951 -6.277 -18.273 H 8 NIL_8    0.000
167 H_3635 -21.326 -3.902 -14.305 H 8 NIL_8    0.000
168 H_3627 -22.240 -6.341 -17.631 H 8 NIL_8    0.000
169 HH -16.223 -4.814 -15.896 H 8 NIL_8    0.000
170 C_2373 -22.966 -5.852 6.056 C.2 9 NIL_9    0.000
171 C_2367 -22.245 -4.909 5.080 C.3 9 NIL_9    0.000
172 O -23.359 -6.955 5.725 O.2 9 NIL_9    0.000
173 C_2366 -21.000 -5.662 4.529 C.3 9 NIL_9    0.000
174 C_2368 -23.138 -4.767 3.812 C.3 9 NIL_9    0.000
175 N -21.899 -3.562 5.666 N.am 9 NIL_9    0.000
176 C_2365 -20.917 -5.251 3.048 C.3 9 NIL_9    0.000
177 N -22.279 -4.937 2.631 N.am 9 NIL_9    0.000
178 C_2370 -20.245 -6.217 2.093 C.2 9 NIL_9    0.000
179 O -19.483 -7.077 2.491 O.2 9 NIL_9    0.000
180 H_2365 -20.333 -4.336 2.969 H 9 NIL_9    0.000
181 H_23681 -23.909 -5.540 3.777 H 9 NIL_9    0.000
182 H_23682 -23.628 -3.790 3.783 H 9 NIL_9    0.000
183 H_23661 -21.139 -6.744 4.581 H 9 NIL_9    0.000
184 H_23662 -20.090 -5.428 5.084 H 9 NIL_9    0.000
185 C_137 -18.781 -4.888 18.121 C.2 10 NIL_10    0.000
186 C_110 -19.806 -5.352 17.075 C.3 10 NIL_10    0.000
187 O -18.915 -5.091 19.314 O.2 10 NIL_10    0.000
188 C_109 -21.081 -4.490 17.246 C.3 10 NIL_10    0.000
189 C_111 -20.266 -6.788 17.477 C.3 10 NIL_10    0.000
190 N -19.317 -5.262 15.652 N.am 10 NIL_10    0.000
191 C_108 -22.148 -5.407 17.873 C.3 10 NIL_10    0.000
192 N -21.743 -6.765 17.466 N.3 10 NIL_10    0.000
193 C_113 -23.530 -4.961 17.439 C.2 10 NIL_10    0.000
194 O -24.203 -5.567 16.626 O.2 10 NIL_10    0.000
195 H_108 -22.089 -5.322 18.962 H 10 NIL_10    0.000
196 H_1111 -19.876 -7.549 16.797 H 10 NIL_10    0.000
197 H_1112 -19.934 -7.046 18.485 H 10 NIL_10    0.000
198 H_1091 -21.431 -4.132 16.275 H 10 NIL_10    0.000
199 H_1092 -20.909 -3.607 17.870 H 10 NIL_10    0.000
200 O -21.918 -2.065 7.345 O.2 11 NIL_11    0.000
201 C_2372 -22.157 -3.193 6.952 C.2 11 NIL_11    0.000
202 C_2376 -22.767 -4.192 7.921 C.3 11 NIL_11    0.000
203 NH -23.195 -5.452 7.321 N.am 11 NIL_11    0.000
204 C_2388 -21.790 -4.425 9.100 C.3 11 NIL_11    0.000
205 C_2396 -22.460 -5.088 10.325 C.3 11 NIL_11    0.000
206 N -21.573 -4.952 11.485 N.3 11 NIL_11    0.000
207 N -21.691 -3.863 12.291 N.2 11 NIL_11    0.000
208 N -21.118 -4.124 13.417 N.2 11 NIL_11    0.000
209 H_23961 -23.416 -4.601 10.539 H 11 NIL_11    0.000
210 H_23962 -22.649 -6.147 10.121 H 11 NIL_11    0.000
211 H_23881 -21.382 -3.463 9.420 H 11 NIL_11    0.000
212 H_23882 -20.946 -5.034 8.765 H 11 NIL_11    0.000
213 H_2376 -23.667 -3.704 8.305 H 11 NIL_11    0.000
214 HH -23.693 -6.087 7.929 H 11 NIL_11    0.000
215 C_1312 -21.875 5.474 3.662 C.3 12 NIL_12    0.000
216 N -22.122 4.084 3.313 N.am 12 NIL_12    0.000
217 C_1313 -21.684 5.507 5.187 C.3 12 NIL_12    0.000
218 C_1317 -20.752 6.101 2.864 C.2 12 NIL_12    0.000
219 C_1315 -22.540 3.334 4.504 C.3 12 NIL_12    0.000
220 C_1314 -22.499 4.290 5.725 C.3 12 NIL_12    0.000
221 O -20.121 7.038 3.317 O.2 12 NIL_12    0.000
222 N -23.899 4.638 6.177 N.am 12 NIL_12    0.000
223 C_1320 -21.667 3.578 6.802 C.2 12 NIL_12    0.000
224 O -20.463 3.421 6.725 O.2 12 NIL_12    0.000
225 H_13151 -21.841 2.503 4.639 H 12 NIL_12    0.000
226 H_13152 -23.541 2.921 4.360 H 12 NIL_12    0.000
227 H_13131 -20.617 5.397 5.387 H 12 NIL_12    0.000
228 H_13132 -21.984 6.458 5.632 H 12 NIL_12    0.000
229 H_1312 -22.770 6.037 3.387 H 12 NIL_12    0.000
230 C_3520 -16.548 -5.728 -10.863 C.3 13 NIL_13    0.000
231 C_3007 -15.738 -4.755 -9.988 C.3 13 NIL_13    0.000
232 C_3006 -16.655 -3.963 -9.030 C.3 13 NIL_13    0.000
233 H_30061 -17.391 -3.421 -9.619 H 13 NIL_13    0.000
234 H_30062 -17.241 -4.689 -8.460 H 13 NIL_13    0.000
235 H_30071 -15.000 -5.317 -9.410 H 13 NIL_13    0.000
236 H_30072 -15.203 -4.074 -10.652 H 13 NIL_13    0.000
237 H_35201 -17.252 -5.183 -11.497 H 13 NIL_13    0.000
238 H_35202 -17.108 -6.435 -10.246 H 13 NIL_13    0.000
239 H_35203 -15.876 -6.295 -11.511 H 13 NIL_13    0.000
240 C_2878 -14.827 3.175 10.249 C.3 14 NIL_14    0.000
241 N -15.284 3.257 11.642 N.3 14 NIL_14    0.000
242 C_2870 -15.529 2.015 9.505 C.3 14 NIL_14    0.000
243 N -14.468 3.887 12.531 N.2 14 NIL_14    0.000
244 C_2858 -15.342 2.034 7.969 C.3 14 NIL_14    0.000
245 N -14.697 3.430 13.714 N.2 14 NIL_14    0.000
246 C_2854 -13.938 1.651 7.517 C.2 14 NIL_14    0.000
247 NH -16.404 1.229 7.370 N.am 14 NIL_14    0.000
248 O -12.961 2.097 8.088 O.2 14 NIL_14    0.000
249 H_2858 -15.498 3.056 7.612 H 14 NIL_14    0.000
250 H_28701 -15.192 1.054 9.904 H 14 NIL_14    0.000
251 H_28702 -16.600 2.092 9.707 H 14 NIL_14    0.000
252 H_28781 -13.744 3.031 10.236 H 14 NIL_14    0.000
253 H_28782 -15.061 4.120 9.749 H 14 NIL_14    0.000
254 HH -17.305 1.281 7.821 H 14 NIL_14    0.000
255 O -13.747 -1.144 16.745 O.2 15 NIL_15    0.000
256 C_262 -14.661 -0.889 17.507 C.2 15 NIL_15    0.000
257 C_257 -14.914 0.508 18.058 C.3 15 NIL_15    0.000
258 N -14.054 1.552 17.461 N.3 15 NIL_15    0.000
259 C_258 -16.376 0.970 17.838 C.3 15 NIL_15    0.000
260 C_260 -14.829 2.798 17.347 C.3 15 NIL_15    0.000
261 C_259 -16.328 2.401 17.245 C.3 15 NIL_15    0.000
262 N -16.830 2.382 15.824 N.am 15 NIL_15    0.000
263 C_271 -17.107 3.346 18.175 C.2 15 NIL_15    0.000
264 O -16.734 3.619 19.301 O.2 15 NIL_15    0.000
265 H_2601 -14.507 3.387 16.485 H 15 NIL_15    0.000
266 H_2602 -14.642 3.388 18.248 H 15 NIL_15    0.000
267 H_2581 -16.917 0.297 17.168 H 15 NIL_15    0.000
268 H_2582 -16.906 0.948 18.793 H 15 NIL_15    0.000
269 H_257 -14.736 0.465 19.137 H 15 NIL_15    0.000
270 C_2528 -20.080 -7.038 -0.232 C.3 16 NIL_16    0.000
271 C_2529 -21.083 -8.182 -0.523 C.3 16 NIL_16    0.000
272 C_3502 -20.873 -9.395 0.406 C.3 16 NIL_16    0.000
273 H_35021 -19.865 -9.800 0.292 H 16 NIL_16    0.000
274 H_35022 -21.586 -10.183 0.152 H 16 NIL_16    0.000
275 H_35023 -21.023 -9.126 1.453 H 16 NIL_16    0.000
276 H_25291 -20.966 -8.508 -1.560 H 16 NIL_16    0.000
277 H_25292 -22.110 -7.826 -0.419 H 16 NIL_16    0.000
278 H_25281 -19.138 -7.473 0.110 H 16 NIL_16    0.000
279 H_25282 -19.834 -6.504 -1.150 H 16 NIL_16    0.000
280 C_726 -23.325 2.584 18.303 C.3 17 NIL_17    0.000
281 C_725 -23.652 4.099 18.239 C.3 17 NIL_17    0.000
282 C_727 -24.434 1.827 17.528 C.3 17 NIL_17    0.000
283 N -24.980 4.203 17.601 N.3 17 NIL_17    0.000
284 C_729 -22.588 4.910 17.510 C.2 17 NIL_17    0.000
285 C_728 -25.591 2.866 17.475 C.3 17 NIL_17    0.000
286 N -23.921 1.422 16.166 N.am 17 NIL_17    0.000
287 C_738 -24.918 0.649 18.396 C.2 17 NIL_17    0.000
288 O -22.847 5.645 16.575 O.2 17 NIL_17    0.000
289 O -25.517 0.809 19.444 O.2 17 NIL_17    0.000
290 H_7281 -26.166 2.779 16.549 H 17 NIL_17    0.000
291 H_7282 -26.275 2.736 18.317 H 17 NIL_17    0.000
292 H_725 -23.698 4.484 19.263 H 17 NIL_17    0.000
293 H_7261 -22.336 2.343 17.907 H 17 NIL_17    0.000
294 H_7262 -23.320 2.289 19.356 H 17 NIL_17    0.000
295 N -15.580 -1.200 -10.934 N.am 18 NIL_18    0.000
296 C_2935 -14.178 -1.141 -10.587 C.3 18 NIL_18    0.000
297 C_2938 -16.332 -1.088 -9.683 C.3 18 NIL_18    0.000
298 C_2936 -14.058 -1.877 -9.244 C.3 18 NIL_18    0.000
299 C_2939 -13.217 -1.615 -11.650 C.2 18 NIL_18    0.000
300 C_2937 -15.448 -1.730 -8.561 C.3 18 NIL_18    0.000
301 O -12.077 -1.909 -11.339 O.2 18 NIL_18    0.000
302 N -15.935 -3.074 -8.065 N.am 18 NIL_18    0.000
303 C_2948 -15.230 -0.710 -7.430 C.2 18 NIL_18    0.000
304 O -15.151 0.488 -7.616 O.2 18 NIL_18    0.000
305 H_29361 -13.802 -2.925 -9.404 H 18 NIL_18    0.000
306 H_29362 -13.250 -1.449 -8.645 H 18 NIL_18    0.000
307 H_29381 -17.327 -1.521 -9.764 H 18 NIL_18    0.000
308 H_29382 -16.484 -0.024 -9.507 H 18 NIL_18    0.000
309 H_2935 -13.942 -0.085 -10.428 H 18 NIL_18    0.000
310 N -23.847 1.752 11.660 N.3 19 NIL_19    0.000
311 C_1343 -23.511 1.742 10.238 C.3 19 NIL_19    0.000
312 N -25.130 1.626 12.087 N.2 19 NIL_19    0.000
313 C_1335 -24.146 2.949 9.516 C.3 19 NIL_19    0.000
314 N -25.149 1.883 13.350 N.2 19 NIL_19    0.000
315 C_1323 -23.748 2.987 8.022 C.3 19 NIL_19    0.000
316 C_1319 -24.513 4.041 7.241 C.2 19 NIL_19    0.000
317 NH -22.302 3.090 7.879 N.am 19 NIL_19    0.000
318 O -25.647 4.340 7.571 O.2 19 NIL_19    0.000
319 H_1323 -24.037 2.035 7.566 H 19 NIL_19    0.000
320 H_13351 -25.232 2.872 9.603 H 19 NIL_19    0.000
321 H_13352 -23.839 3.880 10.001 H 19 NIL_19    0.000
322 H_13431 -23.874 0.814 9.788 H 19 NIL_19    0.000
323 H_13432 -22.423 1.775 10.138 H 19 NIL_19    0.000
324 HH -21.750 2.650 8.600 H 19 NIL_19    0.000
325 C_2299 -23.611 2.532 15.220 C.3 20 NIL_20    0.000
326 C_309 -23.990 2.238 13.787 C.2 20 NIL_20    0.000
327 C_310 -23.194 2.186 12.740 C.2 20 NIL_20    0.000
328 H_310 -22.127 2.384 12.711 H 20 NIL_20    0.000
329 H_22991 -22.536 2.723 15.274 H 20 NIL_20    0.000
330 H_22992 -24.115 3.455 15.486 H 20 NIL_20    0.000
331 C_1471 -18.157 5.193 -9.117 C.3 21 NIL_21    0.000
332 C_1472 -17.023 4.168 -8.898 C.3 21 NIL_21    0.000
333 C_3542 -17.498 2.708 -8.963 C.3 21 NIL_21    0.000
334 H_35421 -18.313 2.520 -8.256 H 21 NIL_21    0.000
335 H_35422 -16.676 2.052 -8.700 H 21 NIL_21    0.000
336 H_35423 -17.822 2.448 -9.973 H 21 NIL_21    0.000
337 H_14721 -16.542 4.341 -7.933 H 21 NIL_21    0.000
338 H_14722 -16.258 4.324 -9.661 H 21 NIL_21    0.000
339 H_14711 -17.711 6.192 -9.140 H 21 NIL_21    0.000
340 H_14712 -18.595 5.037 -10.102 H 21 NIL_21    0.000
341 C_2356 -24.850 -2.251 -8.902 C.3 22 NIL_22    0.000
342 C_2355 -25.136 -3.691 -9.360 C.3 22 NIL_22    0.000
343 C_2357 -23.643 -2.438 -7.919 C.3 22 NIL_22    0.000
344 N -23.812 -4.258 -9.514 N.am 22 NIL_22    0.000
345 C_2360 -26.074 -3.855 -10.533 C.2 22 NIL_22    0.000
346 C_2358 -23.131 -3.873 -8.269 C.3 22 NIL_22    0.000
347 N -22.499 -1.487 -8.105 N.am 22 NIL_22    0.000
348 C_2369 -24.233 -2.447 -6.497 C.2 22 NIL_22    0.000
349 O -27.244 -3.567 -10.388 O.2 22 NIL_22    0.000
350 O -25.187 -3.147 -6.204 O.2 22 NIL_22    0.000
351 H_23581 -22.044 -3.902 -8.382 H 22 NIL_22    0.000
352 H_23582 -23.410 -4.588 -7.487 H 22 NIL_22    0.000
353 H_2355 -25.623 -4.234 -8.542 H 22 NIL_22    0.000
354 H_23561 -24.600 -1.634 -9.764 H 22 NIL_22    0.000
355 H_23562 -25.721 -1.803 -8.421 H 22 NIL_22    0.000
356 O -22.312 2.434 1.830 O.2 23 NIL_23    0.000
357 C_1428 -21.990 3.583 2.067 C.2 23 NIL_23    0.000
358 C_1424 -21.411 4.541 1.012 C.3 23 NIL_23    0.000
359 C_1423 -22.600 5.288 0.342 C.3 23 NIL_23    0.000
360 C_1425 -20.797 3.734 -0.173 C.3 23 NIL_23    0.000
361 N -20.493 5.567 1.635 N.am 23 NIL_23    0.000
362 C_1422 -22.464 5.092 -1.180 C.3 23 NIL_23    0.000
363 N -21.217 4.392 -1.412 N.am 23 NIL_23    0.000
364 C_1427 -22.624 6.349 -2.006 C.2 23 NIL_23    0.000
365 O -23.409 7.213 -1.661 O.2 23 NIL_23    0.000
366 H_1422 -23.265 4.427 -1.514 H 23 NIL_23    0.000
367 H_14251 -19.711 3.680 -0.112 H 23 NIL_23    0.000
368 H_14252 -21.180 2.714 -0.215 H 23 NIL_23    0.000
369 H_14231 -22.597 6.348 0.612 H 23 NIL_23    0.000
370 H_14232 -23.562 4.881 0.667 H 23 NIL_23    0.000
371 N -25.570 -4.426 -11.665 N.am 24 NIL_24    0.000
372 C_2347 -24.095 -4.316 -11.977 C.3 24 NIL_24    0.000
373 C_3508 -26.413 -5.302 -12.545 C.3 24 NIL_24    0.000
374 C_2346 -23.888 -2.954 -12.693 C.3 24 NIL_24    0.000
375 C_2348 -23.526 -5.262 -13.080 C.3 24 NIL_24    0.000
376 C_2359 -23.207 -4.402 -10.720 C.2 24 NIL_24    0.000
377 C_3510 -27.842 -4.832 -12.927 C.3 24 NIL_24    0.000
378 C_2345 -24.276 -3.254 -14.153 C.3 24 NIL_24    0.000
379 N -23.736 -4.601 -14.379 N.am 24 NIL_24    0.000
380 O -22.001 -4.558 -10.784 O.2 24 NIL_24    0.000
381 C_3512 -27.880 -3.465 -13.639 C.3 24 NIL_24    0.000
382 C_2350 -23.898 -2.172 -15.163 C.2 24 NIL_24    0.000
383 O -22.773 -2.016 -15.597 O.2 24 NIL_24    0.000
384 NH -24.935 -1.396 -15.564 N.am 24 NIL_24    0.000
385 C_3705 -24.939 -0.539 -16.763 C.3 24 NIL_24    0.000
386 C_3693 -24.055 0.692 -16.747 C.2 24 NIL_24    0.000
387 C_3691 -24.371 1.756 -16.006 C.2 24 NIL_24    0.000
388 C_3695 -22.953 0.745 -17.499 C.2 24 NIL_24    0.000
389 C_3689 -23.586 2.835 -15.990 C.2 24 NIL_24    0.000
390 C_3697 -22.171 1.823 -17.489 C.2 24 NIL_24    0.000
391 C_3585 -22.461 2.881 -16.719 C.2 24 NIL_24    0.000
392 C_1296 -21.544 3.980 -16.689 C.2 24 NIL_24    0.000
393 O -21.018 4.271 -17.748 O.2 24 NIL_24    0.000
394 H_3697 -21.271 1.814 -18.101 H 24 NIL_24    0.000
395 H_3689 -23.905 3.675 -15.387 H 24 NIL_24    0.000
396 H_3695 -22.680 -0.104 -18.121 H 24 NIL_24    0.000
397 H_3691 -25.278 1.748 -15.404 H 24 NIL_24    0.000
398 H_37051 -25.971 -0.219 -16.931 H 24 NIL_24    0.000
399 H_37052 -24.663 -1.164 -17.617 H 24 NIL_24    0.000
400 H_35121 -28.912 -3.133 -13.760 H 24 NIL_24    0.000
401 H_35122 -27.439 -3.542 -14.635 H 24 NIL_24    0.000
402 H_35123 -27.343 -2.702 -13.070 H 24 NIL_24    0.000
403 H_2345 -25.357 -3.343 -14.208 H 24 NIL_24    0.000
404 H_35101 -28.490 -4.816 -12.050 H 24 NIL_24    0.000
405 H_35102 -28.277 -5.577 -13.598 H 24 NIL_24    0.000
406 H_23481 -22.450 -5.403 -12.963 H 24 NIL_24    0.000
407 H_23482 -23.992 -6.250 -13.055 H 24 NIL_24    0.000
408 H_23461 -22.834 -2.666 -12.655 H 24 NIL_24    0.000
409 H_23462 -24.485 -2.146 -12.262 H 24 NIL_24    0.000
410 H_35081 -26.510 -6.263 -12.031 H 24 NIL_24    0.000
411 H_35082 -25.921 -5.509 -13.494 H 24 NIL_24    0.000
412 HH -25.831 -1.544 -15.126 H 24 NIL_24    0.000
413 C_737 -25.389 -1.817 18.400 C.3 25 NIL_25    0.000
414 C.fb -25.002 -2.954 17.430 C.3 25 NIL_25    0.000
415 N -24.697 -0.601 17.943 N.am 25 NIL_25    0.000
416 C_735 -24.506 -2.178 16.198 C.3 25 NIL_25    0.000
417 NH -23.914 -3.779 17.969 N.am 25 NIL_25    0.000
418 C_734 -23.832 -0.956 16.834 C.3 25 NIL_25    0.000
419 C_739 -23.518 0.151 15.861 C.2 25 NIL_25    0.000
420 O -22.902 -0.124 14.848 O.2 25 NIL_25    0.000
421 H_734 -22.871 -1.259 17.260 H 25 NIL_25    0.000
422 H_7351 -23.822 -2.756 15.572 H 25 NIL_25    0.000
423 H_7352 -25.359 -1.860 15.592 H 25 NIL_25    0.000
424 H.fb -25.865 -3.583 17.190 H 25 NIL_25    0.000
425 H_7371 -26.467 -1.642 18.348 H 25 NIL_25    0.000
426 H_7372 -25.107 -2.056 19.429 H 25 NIL_25    0.000
427 HH -23.307 -3.341 18.645 H 25 NIL_25    0.000
428 C_1417 -18.908 5.759 -6.842 C.2 26 NIL_26    0.000
429 C_1412 -20.063 5.925 -5.879 C.3 26 NIL_26    0.000
430 O -17.788 6.130 -6.545 O.2 26 NIL_26    0.000
431 N -21.137 4.970 -6.091 N.am 26 NIL_26    0.000
432 C_1413 -19.701 5.844 -4.388 C.3 26 NIL_26    0.000
433 C_1415 -21.746 4.597 -4.806 C.3 26 NIL_26    0.000
434 C_1414 -20.998 5.350 -3.674 C.3 26 NIL_26    0.000
435 N -21.869 6.466 -3.137 N.am 26 NIL_26    0.000
436 C_1426 -20.601 4.311 -2.607 C.2 26 NIL_26    0.000
437 O -19.757 3.453 -2.794 O.2 26 NIL_26    0.000
438 H_14151 -21.648 3.516 -4.683 H 26 NIL_26    0.000
439 H_14152 -22.810 4.846 -4.809 H 26 NIL_26    0.000
440 H_14131 -18.887 5.124 -4.282 H 26 NIL_26    0.000
441 H_14132 -19.334 6.794 -3.996 H 26 NIL_26    0.000
442 H_1412 -20.472 6.909 -6.110 H 26 NIL_26    0.000
443 C_766 -20.714 -5.345 13.475 C.2 27 NIL_27    0.000
444 C_767 -21.042 -5.862 12.310 C.2 27 NIL_27    0.000
445 C_2285 -20.072 -6.061 14.644 C.3 27 NIL_27    0.000
446 H_22851 -20.882 -6.616 15.110 H 27 NIL_27    0.000
447 H_22852 -19.376 -6.803 14.245 H 27 NIL_27    0.000
448 H_767 -20.903 -6.888 11.986 H 27 NIL_27    0.000
449 C_3011 -14.944 -3.497 -0.318 C.3 28 NIL_28    0.000
450 C_3010 -16.038 -2.740 0.460 C.3 28 NIL_28    0.000
451 C_3516 -15.550 -4.591 -1.212 C.3 28 NIL_28    0.000
452 H_35161 -16.082 -5.330 -0.609 H 28 NIL_28    0.000
453 H_35162 -14.760 -5.100 -1.767 H 28 NIL_28    0.000
454 H_35163 -16.250 -4.158 -1.930 H 28 NIL_28    0.000
455 H_30101 -16.768 -2.350 -0.244 H 28 NIL_28    0.000
456 H_30102 -16.586 -3.462 1.072 H 28 NIL_28    0.000
457 H_30111 -14.244 -3.954 0.385 H 28 NIL_28    0.000
458 H_30112 -14.374 -2.810 -0.941 H 28 NIL_28    0.000
459 C_2531 -19.812 -2.371 4.810 C.3 29 NIL_29    0.000
460 C_2530 -21.348 -2.536 4.729 C.3 29 NIL_29    0.000
461 C_3500 -19.277 -1.564 3.611 C.3 29 NIL_29    0.000
462 H_35001 -18.187 -1.519 3.635 H 29 NIL_29    0.000
463 H_35002 -19.670 -0.545 3.620 H 29 NIL_29    0.000
464 H_35003 -19.567 -2.036 2.673 H 29 NIL_29    0.000
465 H_25301 -21.805 -1.569 4.954 H 29 NIL_29    0.000
466 H_25302 -21.628 -2.750 3.700 H 29 NIL_29    0.000
467 H_25311 -19.318 -3.343 4.818 H 29 NIL_29    0.000
468 H_25312 -19.548 -1.867 5.742 H 29 NIL_29    0.000
469 C_2526 -22.318 0.373 -2.563 C.3 30 NIL_30    0.000
470 C_2527 -23.175 1.038 -1.457 C.3 30 NIL_30    0.000
471 C_3504 -24.543 0.366 -1.236 C.3 30 NIL_30    0.000
472 H_35041 -25.162 0.447 -2.132 H 30 NIL_30    0.000
473 H_35042 -25.065 0.858 -0.413 H 30 NIL_30    0.000
474 H_35043 -24.432 -0.688 -0.976 H 30 NIL_30    0.000
475 H_25271 -23.330 2.089 -1.704 H 30 NIL_30    0.000
476 H_25272 -22.630 1.010 -0.515 H 30 NIL_30    0.000
477 H_25261 -22.794 0.575 -3.518 H 30 NIL_30    0.000
478 H_25262 -21.335 0.853 -2.587 H 30 NIL_30    0.000
479 C_188 -22.029 -9.247 17.660 C.3 31 NIL_31    0.000
480 C_112 -22.394 -7.860 18.223 C.3 31 NIL_31    0.000
481 H_1121 -23.479 -7.738 18.166 H 31 NIL_31    0.000
482 H_1122 -22.098 -7.805 19.274 H 31 NIL_31    0.000
483 H_1881 -22.576 -10.024 18.196 H 31 NIL_31    0.000
484 H_1882 -20.961 -9.450 17.771 H 31 NIL_31    0.000
485 H_1883 -22.287 -9.311 16.600 H 31 NIL_31    0.000
486 C_1476 -22.015 7.702 -3.957 C.3 32 NIL_32    0.000
487 C_1477 -23.197 7.643 -4.954 C.3 32 NIL_32    0.000
488 C_3532 -23.475 9.022 -5.578 C.3 32 NIL_32    0.000
489 H_35321 -22.616 9.371 -6.154 H 32 NIL_32    0.000
490 H_35322 -23.698 9.757 -4.800 H 32 NIL_32    0.000
491 H_35323 -24.336 8.964 -6.248 H 32 NIL_32    0.000
492 H_14771 -24.099 7.303 -4.438 H 32 NIL_32    0.000
493 H_14772 -22.992 6.934 -5.758 H 32 NIL_32    0.000
494 H_14761 -21.098 7.953 -4.486 H 32 NIL_32    0.000
495 H_14762 -22.188 8.542 -3.277 H 32 NIL_32    0.000
496 C_267 -18.939 3.445 16.505 C.3 33 NIL_33    0.000
497 N -18.228 3.909 17.684 N.am 33 NIL_33    0.000
498 C_268 -19.759 4.647 16.023 C.3 33 NIL_33    0.000
499 C_272 -18.067 2.812 15.447 C.2 33 NIL_33    0.000
500 C_270 -18.900 5.100 18.220 C.3 33 NIL_33    0.000
501 C.fa -20.138 5.351 17.338 C.3 33 NIL_33    0.000
502 O -18.477 2.694 14.307 O.2 33 NIL_33    0.000
503 NH -21.325 4.742 17.953 N.am 33 NIL_33    0.000
504 H.fa -20.307 6.421 17.186 H 33 NIL_33    0.000
505 H_2701 -18.214 5.950 18.145 H 33 NIL_33    0.000
506 H_2702 -19.182 4.949 19.266 H 33 NIL_33    0.000
507 H_2681 -20.626 4.342 15.432 H 33 NIL_33    0.000
508 H_2682 -19.135 5.309 15.416 H 33 NIL_33    0.000
509 H_267 -19.623 2.660 16.840 H 33 NIL_33    0.000
510 HH -21.164 4.110 18.722 H 33 NIL_33    0.000
511 C_245 -15.858 2.328 12.424 C.2 34 NIL_34    0.000
512 C_243 -15.527 2.449 13.690 C.2 34 NIL_34    0.000
513 C_2292 -16.011 1.613 14.852 C.3 34 NIL_34    0.000
514 H_22921 -16.634 0.801 14.466 H 34 NIL_34    0.000
515 H_22922 -15.154 1.137 15.321 H 34 NIL_34    0.000
516 H_245 -16.539 1.595 12.007 H 34 NIL_34    0.000
517 C_3518 -10.350 -1.901 -5.616 C.3 35 NIL_35    0.000
518 C_3009 -11.602 -1.198 -5.060 C.3 35 NIL_35    0.000
519 C_3008 -12.297 -2.058 -3.980 C.3 35 NIL_35    0.000
520 H_30081 -12.670 -2.976 -4.427 H 35 NIL_35    0.000
521 H_30082 -11.535 -2.389 -3.268 H 35 NIL_35    0.000
522 H_30091 -11.310 -0.234 -4.635 H 35 NIL_35    0.000
523 H_30092 -12.288 -0.999 -5.884 H 35 NIL_35    0.000
524 H_35181 -9.900 -1.295 -6.404 H 35 NIL_35    0.000
525 H_35182 -10.607 -2.876 -6.035 H 35 NIL_35    0.000
526 H_35183 -9.606 -2.044 -4.829 H 35 NIL_35    0.000
527 O -15.781 1.929 1.663 O.2 36 NIL_36    0.000
528 C_2960 -15.424 0.788 1.886 C.2 36 NIL_36    0.000
529 C_2956 -15.312 -0.288 0.797 C.3 36 NIL_36    0.000
530 C_2955 -13.879 -0.165 0.204 C.3 36 NIL_36    0.000
531 C_2957 -16.205 0.064 -0.434 C.3 36 NIL_36    0.000
532 N -15.499 -1.680 1.356 N.am 36 NIL_36    0.000
533 C_2954 -14.042 0.076 -1.308 C.3 36 NIL_36    0.000
534 N -15.411 -0.284 -1.616 N.am 36 NIL_36    0.000
535 C_2959 -12.977 -0.613 -2.129 C.2 36 NIL_36    0.000
536 O -11.812 -0.520 -1.790 O.2 36 NIL_36    0.000
537 H_2954 -13.937 1.146 -1.511 H 36 NIL_36    0.000
538 H_29571 -17.179 -0.427 -0.412 H 36 NIL_36    0.000
539 H_29572 -16.389 1.140 -0.496 H 36 NIL_36    0.000
540 H_29551 -13.302 -1.072 0.398 H 36 NIL_36    0.000
541 H_29552 -13.322 0.666 0.644 H 36 NIL_36    0.000
542 C_2521 -21.981 -1.356 -9.492 C.3 37 NIL_37    0.000
543 C_2522 -22.078 0.077 -10.051 C.3 37 NIL_37    0.000
544 C_3506 -21.659 0.113 -11.532 C.3 37 NIL_37    0.000
545 H_35061 -22.361 -0.457 -12.143 H 37 NIL_37    0.000
546 H_35062 -20.659 -0.309 -11.664 H 37 NIL_37    0.000
547 H_35063 -21.654 1.139 -11.903 H 37 NIL_37    0.000
548 H_25221 -21.427 0.738 -9.474 H 37 NIL_37    0.000
549 H_25222 -23.100 0.449 -9.958 H 37 NIL_37    0.000
550 H_25211 -22.527 -2.009 -10.167 H 37 NIL_37    0.000
551 H_25212 -20.935 -1.676 -9.511 H 37 NIL_37    0.000
552 C.fc -15.488 -3.245 17.518 C.3 38 NIL_38    0.000
553 C_134 -16.051 -3.488 16.105 C.3 38 NIL_38    0.000
554 C_136 -16.434 -4.065 18.411 C.3 38 NIL_38    0.000
555 NH -15.537 -1.833 17.912 N.am 38 NIL_38    0.000
556 C_133 -17.559 -3.676 16.334 C.3 38 NIL_38    0.000
557 N -17.686 -4.249 17.666 N.am 38 NIL_38    0.000
558 C_138 -18.282 -4.464 15.259 C.2 38 NIL_38    0.000
559 O -17.931 -4.392 14.097 O.2 38 NIL_38    0.000
560 H_133 -18.037 -2.692 16.366 H 38 NIL_38    0.000
561 H_1361 -15.997 -5.049 18.602 H 38 NIL_38    0.000
562 H_1362 -16.622 -3.559 19.363 H 38 NIL_38    0.000
563 H_1341 -15.839 -2.665 15.417 H 38 NIL_38    0.000
564 H_1342 -15.618 -4.406 15.697 H 38 NIL_38    0.000
565 H.fc -14.459 -3.607 17.602 H 38 NIL_38    0.000
566 HH -16.289 -1.559 18.526 H 38 NIL_38    0.000
567 C_1480 -24.663 5.643 5.374 C.3 39 NIL_39    0.000
568 C_1481 -25.440 5.088 4.154 C.3 39 NIL_39    0.000
569 C_3528 -26.501 4.035 4.528 C.3 39 NIL_39    0.000
570 H_35281 -27.057 3.732 3.639 H 39 NIL_39    0.000
571 H_35282 -27.210 4.443 5.250 H 39 NIL_39    0.000
572 H_35283 -26.039 3.143 4.956 H 39 NIL_39    0.000
573 H_14811 -24.759 4.664 3.418 H 39 NIL_39    0.000
574 H_14812 -25.944 5.924 3.664 H 39 NIL_39    0.000
575 H_14801 -24.015 6.449 5.036 H 39 NIL_39    0.000
576 H_14802 -25.390 6.137 6.025 H 39 NIL_39    0.000
577 C_3013 -11.766 -0.648 6.889 C.3 40 NIL_40    0.000
578 C_3012 -12.435 0.426 5.997 C.3 40 NIL_40    0.000
579 C_3514 -10.409 -1.088 6.312 C.3 40 NIL_40    0.000
580 H_35141 -9.965 -1.862 6.943 H 40 NIL_40    0.000
581 H_35142 -9.718 -0.244 6.267 H 40 NIL_40    0.000
582 H_35143 -10.530 -1.494 5.305 H 40 NIL_40    0.000
583 H_30121 -11.806 1.322 5.996 H 40 NIL_40    0.000
584 H_30122 -12.465 0.068 4.967 H 40 NIL_40    0.000
585 H_30131 -12.414 -1.521 6.987 H 40 NIL_40    0.000
586 H_30132 -11.611 -0.250 7.895 H 40 NIL_40    0.000
587 C_769 -25.848 5.294 18.100 C.3 41 NIL_41    0.000
588 C_770 -27.068 5.519 17.187 C.3 41 NIL_41    0.000
589 H_7701 -27.639 6.385 17.529 H 41 NIL_41    0.000
590 H_7702 -27.731 4.652 17.195 H 41 NIL_41    0.000
591 H_7703 -26.746 5.704 16.160 H 41 NIL_41    0.000
592 H_7691 -25.268 6.221 18.137 H 41 NIL_41    0.000
593 H_7692 -26.186 5.060 19.114 H 41 NIL_41    0.000
594 C_660 -12.723 1.690 18.101 C.3 42 NIL_42    0.000
595 C_662 -11.826 2.715 17.380 C.3 42 NIL_42    0.000
596 H_6621 -11.718 2.458 16.323 H 42 NIL_42    0.000
597 H_6622 -10.833 2.726 17.835 H 42 NIL_42    0.000
598 H_6623 -12.240 3.723 17.454 H 42 NIL_42    0.000
599 H_6601 -12.221 0.719 18.095 H 42 NIL_42    0.000
600 H_6602 -12.853 2.000 19.142 H 42 NIL_42    0.000
601 C_1479 -8.023 23.361 1.204 C.3 43 NIL_43    0.000
602 C_1478 -9.492 23.556 0.759 C.3 43 NIL_43    0.000
603 C_3530 -7.520 21.915 1.050 C.3 43 NIL_43    0.000
604 H_35301 -8.131 21.222 1.633 H 43 NIL_43    0.000
605 H_35302 -6.490 21.844 1.408 H 43 NIL_43    0.000
606 H_35303 -7.535 21.609 0.002 H 43 NIL_43    0.000
607 H_14781 -9.711 24.628 0.779 H 43 NIL_43    0.000
608 H_14782 -9.584 23.253 -0.281 H 43 NIL_43    0.000
609 H_14791 -7.897 23.668 2.244 H 43 NIL_43    0.000
610 H_14792 -7.388 24.018 0.605 H 43 NIL_43    0.000
611 C_1303 -11.172 23.505 -9.175 C.3 44 NIL_44    0.000
612 C_1302 -11.896 22.997 -10.426 C.3 44 NIL_44    0.000
613 C_1304 -10.606 22.232 -8.486 C.3 44 NIL_44    0.000
614 N -11.137 21.835 -10.829 N.am 44 NIL_44    0.000
615 C_1307 -12.101 24.067 -11.471 C.2 44 NIL_44    0.000
616 C_1305 -10.747 21.144 -9.602 C.3 44 NIL_44    0.000
617 N -9.194 22.513 -8.050 N.am 44 NIL_44    0.000
618 C_1316 -11.533 21.874 -7.312 C.2 44 NIL_44    0.000
619 O -12.700 25.083 -11.164 O.2 44 NIL_44    0.000
620 O -12.566 21.242 -7.437 O.2 44 NIL_44    0.000
621 H_13051 -9.831 20.585 -9.755 H 44 NIL_44    0.000
622 H_13052 -11.532 20.419 -9.376 H 44 NIL_44    0.000
623 H_1302 -12.895 22.647 -10.147 H 44 NIL_44    0.000
624 H_13031 -10.359 24.167 -9.491 H 44 NIL_44    0.000
625 H_13032 -11.835 24.080 -8.524 H 44 NIL_44    0.000
626 O -13.810 12.771 1.057 O.2 45 NIL_45    0.000
627 C_2478 -12.655 12.513 1.339 C.2 45 NIL_45    0.000
628 C_2474 -11.539 12.309 0.296 C.3 45 NIL_45    0.000
629 C_2473 -10.835 13.683 0.129 C.3 45 NIL_45    0.000
630 C_2475 -12.166 12.162 -1.139 C.3 45 NIL_45    0.000
631 N -10.581 11.244 0.775 N.am 45 NIL_45    0.000
632 C_2472 -11.843 14.462 -0.727 C.3 45 NIL_45    0.000
633 N -12.297 13.513 -1.721 N.am 45 NIL_45    0.000
634 C_2477 -11.445 15.819 -1.245 C.2 45 NIL_45    0.000
635 O -10.651 16.527 -0.655 O.2 45 NIL_45    0.000
636 H_2472 -12.711 14.692 -0.107 H 45 NIL_45    0.000
637 H_24751 -11.536 11.591 -1.820 H 45 NIL_45    0.000
638 H_24752 -13.147 11.678 -1.092 H 45 NIL_45    0.000
639 H_24731 -9.886 13.577 -0.404 H 45 NIL_45    0.000
640 H_24732 -10.655 14.188 1.076 H 45 NIL_45    0.000
641 O -7.024 16.174 -2.874 O.2 46 NIL_46    0.000
642 C_2958 -5.835 16.385 -2.722 C.2 46 NIL_46    0.000
643 C_2946 -4.774 15.950 -3.754 C.3 46 NIL_46    0.000
644 C_2945 -5.176 14.574 -4.381 C.3 46 NIL_46    0.000
645 C_2947 -4.924 16.916 -4.960 C.3 46 NIL_46    0.000
646 N -3.357 15.991 -3.225 N.am 46 NIL_46    0.000
647 C_2944 -4.888 14.713 -5.887 C.3 46 NIL_46    0.000
648 N -5.072 16.119 -6.186 N.am 46 NIL_46    0.000
649 C_2949 -5.655 13.785 -6.809 C.2 46 NIL_46    0.000
650 O -5.990 12.678 -6.430 O.2 46 NIL_46    0.000
651 H_2944 -3.840 14.487 -6.089 H 46 NIL_46    0.000
652 H_29471 -5.818 17.537 -4.853 H 46 NIL_46    0.000
653 H_29472 -4.058 17.578 -5.046 H 46 NIL_46    0.000
654 H_29451 -6.244 14.377 -4.267 H 46 NIL_46    0.000
655 H_29452 -4.651 13.731 -3.930 H 46 NIL_46    0.000
656 C_2849 -4.936 17.706 5.570 C.3 47 NIL_47    0.000
657 C_2848 -4.809 16.255 4.997 C.3 47 NIL_47    0.000
658 C_2850 -4.976 18.606 4.306 C.3 47 NIL_47    0.000
659 N -3.800 18.118 6.462 N.am 47 NIL_47    0.000
660 C_2855 -6.313 17.861 6.222 C.2 47 NIL_47    0.000
661 C_2847 -4.556 16.423 3.488 C.3 47 NIL_47    0.000
662 N -5.074 17.733 3.136 N.am 47 NIL_47    0.000
663 O -7.332 17.409 5.736 O.2 47 NIL_47    0.000
664 C_2852 -5.089 15.304 2.614 C.2 47 NIL_47    0.000
665 O -5.140 14.161 3.028 O.2 47 NIL_47    0.000
666 H_2847 -3.478 16.452 3.307 H 47 NIL_47    0.000
667 H_28501 -5.827 19.293 4.330 H 47 NIL_47    0.000
668 H_28502 -4.056 19.191 4.220 H 47 NIL_47    0.000
669 H_28481 -5.724 15.680 5.152 H 47 NIL_47    0.000
670 H_28482 -4.012 15.672 5.453 H 47 NIL_47    0.000
671 C_3654 -5.386 20.730 -16.312 C.2 48 NIL_48    0.000
672 C_3652 -5.126 19.428 -16.178 C.2 48 NIL_48    0.000
673 C_3656 -6.147 21.172 -17.310 C.2 48 NIL_48    0.000
674 C_3574 -5.626 18.528 -17.034 C.2 48 NIL_48    0.000
675 C_3658 -6.610 20.293 -18.203 C.2 48 NIL_48    0.000
676 C_3668 -6.570 22.626 -17.365 C.3 48 NIL_48    0.000
677 C_2831 -5.454 17.109 -16.890 C.2 48 NIL_48    0.000
678 C_3660 -6.355 18.992 -18.065 C.2 48 NIL_48    0.000
679 NH -7.806 22.966 -16.623 N.am 48 NIL_48    0.000
680 O -5.417 16.482 -17.933 O.2 48 NIL_48    0.000
681 C_1297 -8.710 22.106 -16.080 C.2 48 NIL_48    0.000
682 C_1292 -9.916 22.758 -15.424 C.3 48 NIL_48    0.000
683 O -8.583 20.896 -16.063 O.2 48 NIL_48    0.000
684 N -11.164 21.962 -15.551 N.am 48 NIL_48    0.000
685 C_1293 -9.617 22.922 -13.920 C.3 48 NIL_48    0.000
686 C_1295 -11.757 21.807 -14.215 C.3 48 NIL_48    0.000
687 C_1294 -10.933 22.600 -13.174 C.3 48 NIL_48    0.000
688 N -11.636 23.858 -12.735 N.am 48 NIL_48    0.000
689 C_1306 -10.632 21.591 -12.056 C.2 48 NIL_48    0.000
690 C_3544 -12.021 24.815 -13.819 C.3 48 NIL_48    0.000
691 O -9.971 20.587 -12.254 O.2 48 NIL_48    0.000
692 C_3546 -11.079 26.022 -14.071 C.3 48 NIL_48    0.000
693 C_3548 -10.845 26.917 -12.838 C.3 48 NIL_48    0.000
694 H_35481 -10.362 26.359 -12.035 H 48 NIL_48    0.000
695 H_35482 -11.790 27.328 -12.472 H 48 NIL_48    0.000
696 H_35483 -10.192 27.753 -13.101 H 48 NIL_48    0.000
697 H_35461 -11.526 26.636 -14.857 H 48 NIL_48    0.000
698 H_35462 -10.119 25.693 -14.463 H 48 NIL_48    0.000
699 H_35441 -13.015 25.211 -13.591 H 48 NIL_48    0.000
700 H_35442 -12.133 24.285 -14.765 H 48 NIL_48    0.000
701 H_12951 -11.778 20.740 -13.976 H 48 NIL_48    0.000
702 H_12952 -12.781 22.184 -14.208 H 48 NIL_48    0.000
703 H_12931 -8.825 22.225 -13.635 H 48 NIL_48    0.000
704 H_12932 -9.229 23.910 -13.674 H 48 NIL_48    0.000
705 H_1292 -10.075 23.736 -15.889 H 48 NIL_48    0.000
706 H_3660 -6.798 18.311 -18.788 H 48 NIL_48    0.000
707 H_36681 -5.767 23.250 -16.964 H 48 NIL_48    0.000
708 H_36682 -6.713 22.925 -18.408 H 48 NIL_48    0.000
709 H_3658 -7.244 20.630 -19.020 H 48 NIL_48    0.000
710 H_3652 -4.492 19.149 -15.355 H 48 NIL_48    0.000
711 H_3654 -4.994 21.430 -15.577 H 48 NIL_48    0.000
712 HH -8.006 23.952 -16.546 H 48 NIL_48    0.000
713 N -13.673 15.681 -5.566 N.am 49 NIL_49    0.000
714 C_2462 -12.339 16.235 -5.682 C.3 49 NIL_49    0.000
715 C_2465 -13.929 15.607 -4.116 C.3 49 NIL_49    0.000
716 C_2463 -11.546 15.456 -4.620 C.3 49 NIL_49    0.000
717 C_2467 -11.727 16.246 -7.064 C.2 49 NIL_49    0.000
718 C_2464 -12.553 15.296 -3.437 C.3 49 NIL_49    0.000
719 O -10.599 16.672 -7.220 O.2 49 NIL_49    0.000
720 N -12.136 16.236 -2.339 N.am 49 NIL_49    0.000
721 C_2476 -12.612 13.814 -3.004 C.2 49 NIL_49    0.000
722 O -12.941 12.932 -3.773 O.2 49 NIL_49    0.000
723 H_24631 -11.253 14.485 -5.029 H 49 NIL_49    0.000
724 H_24632 -10.635 15.985 -4.333 H 49 NIL_49    0.000
725 H_24651 -14.669 14.836 -3.885 H 49 NIL_49    0.000
726 H_24652 -14.348 16.562 -3.798 H 49 NIL_49    0.000
727 H_2462 -12.397 17.289 -5.402 H 49 NIL_49    0.000
728 O -14.184 11.797 -16.346 O.2 50 NIL_50    0.000
729 C_2349 -13.346 12.210 -15.567 C.2 50 NIL_50    0.000
730 C_2378 -11.960 12.193 -15.919 C.2 50 NIL_50    0.000
731 C_3627 -11.543 11.541 -17.012 C.2 50 NIL_50    0.000
732 C_3635 -11.049 12.860 -15.194 C.2 50 NIL_50    0.000
733 C_3629 -10.260 11.575 -17.375 C.2 50 NIL_50    0.000
734 C_3633 -9.771 12.898 -15.566 C.2 50 NIL_50    0.000
735 C_3631 -9.360 12.263 -16.667 C.2 50 NIL_50    0.000
736 C_3643 -7.922 12.310 -17.155 C.3 50 NIL_50    0.000
737 NH -6.926 13.051 -16.373 N.am 50 NIL_50    0.000
738 C_2832 -6.843 14.399 -16.327 C.2 50 NIL_50    0.000
739 C_2827 -5.593 14.927 -15.634 C.3 50 NIL_50    0.000
740 O -7.710 15.114 -16.794 O.2 50 NIL_50    0.000
741 N -5.393 16.396 -15.717 N.am 50 NIL_50    0.000
742 C_2828 -5.591 14.514 -14.144 C.3 50 NIL_50    0.000
743 C_2830 -5.336 16.914 -14.339 C.3 50 NIL_50    0.000
744 C_2829 -5.112 15.751 -13.343 C.3 50 NIL_50    0.000
745 N -3.658 15.629 -12.938 N.am 50 NIL_50    0.000
746 C_2841 -6.091 15.978 -12.175 C.2 50 NIL_50    0.000
747 C_3522 -2.696 15.181 -13.991 C.3 50 NIL_50    0.000
748 O -7.297 16.025 -12.340 O.2 50 NIL_50    0.000
749 C_3524 -1.516 16.132 -14.316 C.3 50 NIL_50    0.000
750 C_3526 -1.942 17.467 -14.950 C.3 50 NIL_50    0.000
751 H_35261 -2.591 17.300 -15.812 H 50 NIL_50    0.000
752 H_35262 -1.063 18.018 -15.291 H 50 NIL_50    0.000
753 H_35263 -2.460 18.093 -14.223 H 50 NIL_50    0.000
754 H_35241 -0.859 15.619 -15.023 H 50 NIL_50    0.000
755 H_35242 -0.919 16.332 -13.424 H 50 NIL_50    0.000
756 H_35221 -3.196 14.990 -14.933 H 50 NIL_50    0.000
757 H_35222 -2.274 14.226 -13.662 H 50 NIL_50    0.000
758 H_28301 -6.277 17.437 -14.146 H 50 NIL_50    0.000
759 H_28302 -4.519 17.609 -14.200 H 50 NIL_50    0.000
760 H_28281 -6.601 14.218 -13.850 H 50 NIL_50    0.000
761 H_28282 -4.956 13.641 -13.970 H 50 NIL_50    0.000
762 H_2827 -4.750 14.445 -16.139 H 50 NIL_50    0.000
763 H_36431 -7.555 11.284 -17.246 H 50 NIL_50    0.000
764 H_36432 -7.919 12.741 -18.161 H 50 NIL_50    0.000
765 H_3633 -9.077 13.473 -14.958 H 50 NIL_50    0.000
766 H_3629 -9.951 11.043 -18.273 H 50 NIL_50    0.000
767 H_3635 -11.326 13.419 -14.305 H 50 NIL_50    0.000
768 H_3627 -12.240 10.979 -17.631 H 50 NIL_50    0.000
769 HH -6.223 12.507 -15.896 H 50 NIL_50    0.000
770 C_2373 -12.966 11.469 6.056 C.2 51 NIL_51    0.000
771 C_2367 -12.245 12.411 5.080 C.3 51 NIL_51    0.000
772 O -13.359 10.366 5.725 O.2 51 NIL_51    0.000
773 C_2366 -11.000 11.659 4.529 C.3 51 NIL_51    0.000
774 C_2368 -13.138 12.554 3.812 C.3 51 NIL_51    0.000
775 N -11.899 13.758 5.666 N.am 51 NIL_51    0.000
776 C_2365 -10.917 12.069 3.048 C.3 51 NIL_51    0.000
777 N -12.279 12.383 2.631 N.am 51 NIL_51    0.000
778 C_2370 -10.245 11.104 2.093 C.2 51 NIL_51    0.000
779 O -9.483 10.243 2.491 O.2 51 NIL_51    0.000
780 H_2365 -10.333 12.984 2.969 H 51 NIL_51    0.000
781 H_23681 -13.909 11.780 3.777 H 51 NIL_51    0.000
782 H_23682 -13.628 13.530 3.783 H 51 NIL_51    0.000
783 H_23661 -11.139 10.576 4.581 H 51 NIL_51    0.000
784 H_23662 -10.090 11.893 5.084 H 51 NIL_51    0.000
785 C_137 -8.781 12.433 18.121 C.2 52 NIL_52    0.000
786 C_110 -9.806 11.969 17.075 C.3 52 NIL_52    0.000
787 O -8.915 12.229 19.314 O.2 52 NIL_52    0.000
788 C_109 -11.081 12.831 17.246 C.3 52 NIL_52    0.000
789 C_111 -10.266 10.533 17.477 C.3 52 NIL_52    0.000
790 N -9.317 12.059 15.652 N.am 52 NIL_52    0.000
791 C_108 -12.148 11.914 17.873 C.3 52 NIL_52    0.000
792 N -11.743 10.556 17.466 N.3 52 NIL_52    0.000
793 C_113 -13.530 12.359 17.439 C.2 52 NIL_52    0.000
794 O -14.203 11.754 16.626 O.2 52 NIL_52    0.000
795 H_108 -12.089 11.998 18.962 H 52 NIL_52    0.000
796 H_1111 -9.876 9.772 16.797 H 52 NIL_52    0.000
797 H_1112 -9.934 10.274 18.485 H 52 NIL_52    0.000
798 H_1091 -11.431 13.189 16.275 H 52 NIL_52    0.000
799 H_1092 -10.909 13.713 17.870 H 52 NIL_52    0.000
800 O -11.918 15.256 7.345 O.2 53 NIL_53    0.000
801 C_2372 -12.157 14.128 6.952 C.2 53 NIL_53    0.000
802 C_2376 -12.767 13.128 7.921 C.3 53 NIL_53    0.000
803 NH -13.195 11.868 7.321 N.am 53 NIL_53    0.000
804 C_2388 -11.790 12.895 9.100 C.3 53 NIL_53    0.000
805 C_2396 -12.460 12.232 10.325 C.3 53 NIL_53    0.000
806 N -11.573 12.369 11.485 N.3 53 NIL_53    0.000
807 N -11.691 13.457 12.291 N.2 53 NIL_53    0.000
808 N -11.118 13.196 13.417 N.2 53 NIL_53    0.000
809 H_23961 -13.416 12.720 10.539 H 53 NIL_53    0.000
810 H_23962 -12.649 11.173 10.121 H 53 NIL_53    0.000
811 H_23881 -11.382 13.857 9.420 H 53 NIL_53    0.000
812 H_23882 -10.946 12.287 8.765 H 53 NIL_53    0.000
813 H_2376 -13.667 13.616 8.305 H 53 NIL_53    0.000
814 HH -13.693 11.233 7.929 H 53 NIL_53    0.000
815 C_1312 -11.875 22.795 3.662 C.3 54 NIL_54    0.000
816 N -12.121 21.404 3.313 N.am 54 NIL_54    0.000
817 C_1313 -11.684 22.827 5.187 C.3 54 NIL_54    0.000
818 C_1317 -10.752 23.422 2.864 C.2 54 NIL_54    0.000
819 C_1315 -12.540 20.655 4.504 C.3 54 NIL_54    0.000
820 C_1314 -12.499 21.611 5.725 C.3 54 NIL_54    0.000
821 O -10.121 24.359 3.317 O.2 54 NIL_54    0.000
822 N -13.899 21.959 6.177 N.am 54 NIL_54    0.000
823 C_1320 -11.667 20.899 6.802 C.2 54 NIL_54    0.000
824 O -10.463 20.742 6.725 O.2 54 NIL_54    0.000
825 H_13151 -11.841 19.823 4.639 H 54 NIL_54    0.000
826 H_13152 -13.541 20.242 4.360 H 54 NIL_54    0.000
827 H_13131 -10.617 22.717 5.387 H 54 NIL_54    0.000
828 H_13132 -11.984 23.779 5.632 H 54 NIL_54    0.000
829 H_1312 -12.770 23.357 3.387 H 54 NIL_54    0.000
830 C_3520 -6.548 11.592 -10.863 C.3 55 NIL_55    0.000
831 C_3007 -5.738 12.566 -9.988 C.3 55 NIL_55    0.000
832 C_3006 -6.655 13.358 -9.030 C.3 55 NIL_55    0.000
833 H_30061 -7.391 13.899 -9.619 H 55 NIL_55    0.000
834 H_30062 -7.241 12.631 -8.460 H 55 NIL_55    0.000
835 H_30071 -5.000 12.004 -9.410 H 55 NIL_55    0.000
836 H_30072 -5.203 13.246 -10.652 H 55 NIL_55    0.000
837 H_35201 -7.252 12.137 -11.497 H 55 NIL_55    0.000
838 H_35202 -7.108 10.886 -10.246 H 55 NIL_55    0.000
839 H_35203 -5.876 11.025 -11.511 H 55 NIL_55    0.000
840 C_2878 -4.827 20.496 10.249 C.3 56 NIL_56    0.000
841 N -5.284 20.578 11.642 N.3 56 NIL_56    0.000
842 C_2870 -5.529 19.335 9.505 C.3 56 NIL_56    0.000
843 N -4.468 21.208 12.531 N.2 56 NIL_56    0.000
844 C_2858 -5.342 19.354 7.969 C.3 56 NIL_56    0.000
845 N -4.697 20.751 13.714 N.2 56 NIL_56    0.000
846 C_2854 -3.938 18.971 7.517 C.2 56 NIL_56    0.000
847 NH -6.404 18.550 7.370 N.am 56 NIL_56    0.000
848 O -2.961 19.417 8.088 O.2 56 NIL_56    0.000
849 H_2858 -5.498 20.376 7.612 H 56 NIL_56    0.000
850 H_28701 -5.192 18.374 9.904 H 56 NIL_56    0.000
851 H_28702 -6.600 19.413 9.707 H 56 NIL_56    0.000
852 H_28781 -3.744 20.352 10.236 H 56 NIL_56    0.000
853 H_28782 -5.061 21.440 9.749 H 56 NIL_56    0.000
854 HH -7.305 18.601 7.821 H 56 NIL_56    0.000
855 O -3.747 16.177 16.745 O.2 57 NIL_57    0.000
856 C_262 -4.661 16.432 17.507 C.2 57 NIL_57    0.000
857 C_257 -4.914 17.828 18.058 C.3 57 NIL_57    0.000
858 N -4.054 18.872 17.461 N.3 57 NIL_57    0.000
859 C_258 -6.376 18.291 17.838 C.3 57 NIL_57    0.000
860 C_260 -4.829 20.119 17.347 C.3 57 NIL_57    0.000
861 C_259 -6.328 19.721 17.245 C.3 57 NIL_57    0.000
862 N -6.830 19.703 15.824 N.am 57 NIL_57    0.000
863 C_271 -7.107 20.666 18.175 C.2 57 NIL_57    0.000
864 O -6.734 20.939 19.301 O.2 57 NIL_57    0.000
865 H_2601 -4.507 20.708 16.485 H 57 NIL_57    0.000
866 H_2602 -4.642 20.709 18.248 H 57 NIL_57    0.000
867 H_2581 -6.917 17.617 17.168 H 57 NIL_57    0.000
868 H_2582 -6.906 18.269 18.793 H 57 NIL_57    0.000
869 H_257 -4.736 17.785 19.137 H 57 NIL_57    0.000
870 C_2528 -10.080 10.282 -0.232 C.3 58 NIL_58    0.000
871 C_2529 -11.083 9.138 -0.523 C.3 58 NIL_58    0.000
872 C_3502 -10.873 7.926 0.406 C.3 58 NIL_58    0.000
873 H_35021 -9.865 7.520 0.292 H 58 NIL_58    0.000
874 H_35022 -11.586 7.137 0.152 H 58 NIL_58    0.000
875 H_35023 -11.023 8.195 1.453 H 58 NIL_58    0.000
876 H_25291 -10.966 8.813 -1.560 H 58 NIL_58    0.000
877 H_25292 -12.110 9.494 -0.419 H 58 NIL_58    0.000
878 H_25281 -9.138 9.847 0.110 H 58 NIL_58    0.000
879 H_25282 -9.834 10.816 -1.150 H 58 NIL_58    0.000
880 C_726 -13.325 19.905 18.303 C.3 59 NIL_59    0.000
881 C_725 -13.652 21.420 18.239 C.3 59 NIL_59    0.000
882 C_727 -14.433 19.148 17.528 C.3 59 NIL_59    0.000
883 N -14.980 21.523 17.601 N.3 59 NIL_59    0.000
884 C_729 -12.588 22.231 17.510 C.2 59 NIL_59    0.000
885 C_728 -15.591 20.186 17.475 C.3 59 NIL_59    0.000
886 N -13.921 18.742 16.166 N.am 59 NIL_59    0.000
887 C_738 -14.918 17.969 18.396 C.2 59 NIL_59    0.000
888 O -12.847 22.966 16.575 O.2 59 NIL_59    0.000
889 O -15.517 18.130 19.444 O.2 59 NIL_59    0.000
890 H_7281 -16.166 20.100 16.549 H 59 NIL_59    0.000
891 H_7282 -16.275 20.056 18.317 H 59 NIL_59    0.000
892 H_725 -13.698 21.805 19.263 H 59 NIL_59    0.000
893 H_7261 -12.336 19.663 17.907 H 59 NIL_59    0.000
894 H_7262 -13.320 19.609 19.356 H 59 NIL_59    0.000
895 N -5.580 16.120 -10.934 N.am 60 NIL_60    0.000
896 C_2935 -4.178 16.180 -10.587 C.3 60 NIL_60    0.000
897 C_2938 -6.332 16.232 -9.683 C.3 60 NIL_60    0.000
898 C_2936 -4.058 15.443 -9.244 C.3 60 NIL_60    0.000
899 C_2939 -3.217 15.706 -11.650 C.2 60 NIL_60    0.000
900 C_2937 -5.448 15.591 -8.561 C.3 60 NIL_60    0.000
901 O -2.077 15.412 -11.339 O.2 60 NIL_60    0.000
902 N -5.935 14.246 -8.065 N.am 60 NIL_60    0.000
903 C_2948 -5.230 16.610 -7.430 C.2 60 NIL_60    0.000
904 O -5.151 17.809 -7.616 O.2 60 NIL_60    0.000
905 H_29361 -3.802 14.395 -9.404 H 60 NIL_60    0.000
906 H_29362 -3.250 15.871 -8.645 H 60 NIL_60    0.000
907 H_29381 -7.327 15.800 -9.764 H 60 NIL_60    0.000
908 H_29382 -6.484 17.296 -9.507 H 60 NIL_60    0.000
909 H_2935 -3.942 17.236 -10.428 H 60 NIL_60    0.000
910 N -13.847 19.072 11.660 N.3 61 NIL_61    0.000
911 C_1343 -13.511 19.062 10.238 C.3 61 NIL_61    0.000
912 N -15.130 18.946 12.087 N.2 61 NIL_61    0.000
913 C_1335 -14.146 20.269 9.516 C.3 61 NIL_61    0.000
914 N -15.149 19.203 13.350 N.2 61 NIL_61    0.000
915 C_1323 -13.748 20.307 8.022 C.3 61 NIL_61    0.000
916 C_1319 -14.513 21.362 7.241 C.2 61 NIL_61    0.000
917 NH -12.302 20.411 7.879 N.am 61 NIL_61    0.000
918 O -15.647 21.661 7.571 O.2 61 NIL_61    0.000
919 H_1323 -14.037 19.356 7.566 H 61 NIL_61    0.000
920 H_13351 -15.232 20.192 9.603 H 61 NIL_61    0.000
921 H_13352 -13.839 21.200 10.001 H 61 NIL_61    0.000
922 H_13431 -13.874 18.135 9.788 H 61 NIL_61    0.000
923 H_13432 -12.422 19.095 10.138 H 61 NIL_61    0.000
924 HH -11.750 19.971 8.600 H 61 NIL_61    0.000
925 C_2299 -13.611 19.853 15.220 C.3 62 NIL_62    0.000
926 C_309 -13.990 19.558 13.787 C.2 62 NIL_62    0.000
927 C_310 -13.194 19.507 12.740 C.2 62 NIL_62    0.000
928 H_310 -12.127 19.704 12.711 H 62 NIL_62    0.000
929 H_22991 -12.536 20.044 15.274 H 62 NIL_62    0.000
930 H_22992 -14.115 20.776 15.486 H 62 NIL_62    0.000
931 C_1471 -8.157 22.514 -9.117 C.3 63 NIL_63    0.000
932 C_1472 -7.023 21.489 -8.898 C.3 63 NIL_63    0.000
933 C_3542 -7.498 20.029 -8.963 C.3 63 NIL_63    0.000
934 H_35421 -8.313 19.841 -8.256 H 63 NIL_63    0.000
935 H_35422 -6.676 19.373 -8.700 H 63 NIL_63    0.000
936 H_35423 -7.822 19.769 -9.973 H 63 NIL_63    0.000
937 H_14721 -6.542 21.662 -7.933 H 63 NIL_63    0.000
938 H_14722 -6.258 21.644 -9.661 H 63 NIL_63    0.000
939 H_14711 -7.711 23.513 -9.140 H 63 NIL_63    0.000
940 H_14712 -8.595 22.358 -10.102 H 63 NIL_63    0.000
941 C_2356 -14.850 15.070 -8.902 C.3 64 NIL_64    0.000
942 C_2355 -15.136 13.630 -9.360 C.3 64 NIL_64    0.000
943 C_2357 -13.643 14.882 -7.919 C.3 64 NIL_64    0.000
944 N -13.812 13.062 -9.514 N.am 64 NIL_64    0.000
945 C_2360 -16.074 13.465 -10.533 C.2 64 NIL_64    0.000
946 C_2358 -13.130 13.447 -8.269 C.3 64 NIL_64    0.000
947 N -12.499 15.834 -8.105 N.am 64 NIL_64    0.000
948 C_2369 -14.233 14.874 -6.497 C.2 64 NIL_64    0.000
949 O -17.244 13.754 -10.388 O.2 64 NIL_64    0.000
950 O -15.187 14.174 -6.204 O.2 64 NIL_64    0.000
951 H_23581 -12.044 13.419 -8.382 H 64 NIL_64    0.000
952 H_23582 -13.410 12.732 -7.487 H 64 NIL_64    0.000
953 H_2355 -15.623 13.087 -8.542 H 64 NIL_64    0.000
954 H_23561 -14.600 15.687 -9.764 H 64 NIL_64    0.000
955 H_23562 -15.721 15.517 -8.421 H 64 NIL_64    0.000
956 O -12.312 19.755 1.830 O.2 65 NIL_65    0.000
957 C_1428 -11.990 20.904 2.067 C.2 65 NIL_65    0.000
958 C_1424 -11.411 21.862 1.012 C.3 65 NIL_65    0.000
959 C_1423 -12.600 22.609 0.342 C.3 65 NIL_65    0.000
960 C_1425 -10.797 21.054 -0.173 C.3 65 NIL_65    0.000
961 N -10.493 22.887 1.635 N.am 65 NIL_65    0.000
962 C_1422 -12.464 22.412 -1.180 C.3 65 NIL_65    0.000
963 N -11.217 21.712 -1.412 N.am 65 NIL_65    0.000
964 C_1427 -12.624 23.669 -2.006 C.2 65 NIL_65    0.000
965 O -13.409 24.534 -1.661 O.2 65 NIL_65    0.000
966 H_1422 -13.265 21.748 -1.514 H 65 NIL_65    0.000
967 H_14251 -9.711 21.001 -0.112 H 65 NIL_65    0.000
968 H_14252 -11.180 20.034 -0.215 H 65 NIL_65    0.000
969 H_14231 -12.597 23.669 0.612 H 65 NIL_65    0.000
970 H_14232 -13.562 22.201 0.667 H 65 NIL_65    0.000
971 N -15.570 12.895 -11.665 N.am 66 NIL_66    0.000
972 C_2347 -14.095 13.004 -11.977 C.3 66 NIL_66    0.000
973 C_3508 -16.413 12.018 -12.545 C.3 66 NIL_66    0.000
974 C_2346 -13.888 14.367 -12.693 C.3 66 NIL_66    0.000
975 C_2348 -13.526 12.059 -13.080 C.3 66 NIL_66    0.000
976 C_2359 -13.207 12.918 -10.720 C.2 66 NIL_66    0.000
977 C_3510 -17.842 12.488 -12.927 C.3 66 NIL_66    0.000
978 C_2345 -14.276 14.067 -14.153 C.3 66 NIL_66    0.000
979 N -13.736 12.720 -14.379 N.am 66 NIL_66    0.000
980 O -12.001 12.762 -10.784 O.2 66 NIL_66    0.000
981 C_3512 -17.880 13.855 -13.639 C.3 66 NIL_66    0.000
982 C_2350 -13.898 15.149 -15.163 C.2 66 NIL_66    0.000
983 O -12.773 15.304 -15.597 O.2 66 NIL_66    0.000
984 NH -14.935 15.925 -15.564 N.am 66 NIL_66    0.000
985 C_3705 -14.938 16.782 -16.763 C.3 66 NIL_66    0.000
986 C_3693 -14.055 18.013 -16.747 C.2 66 NIL_66    0.000
987 C_3691 -14.371 19.077 -16.006 C.2 66 NIL_66    0.000
988 C_3695 -12.953 18.065 -17.499 C.2 66 NIL_66    0.000
989 C_3689 -13.586 20.155 -15.990 C.2 66 NIL_66    0.000
990 C_3697 -12.171 19.144 -17.489 C.2 66 NIL_66    0.000
991 C_3585 -12.461 20.202 -16.719 C.2 66 NIL_66    0.000
992 C_1296 -11.544 21.301 -16.689 C.2 66 NIL_66    0.000
993 O -11.018 21.592 -17.748 O.2 66 NIL_66    0.000
994 H_3697 -11.271 19.134 -18.101 H 66 NIL_66    0.000
995 H_3689 -13.905 20.996 -15.387 H 66 NIL_66    0.000
996 H_3695 -12.680 17.216 -18.121 H 66 NIL_66    0.000
997 H_3691 -15.278 19.068 -15.404 H 66 NIL_66    0.000
998 H_37051 -15.971 17.102 -16.931 H 66 NIL_66    0.000
999 H_37052 -14.663 16.156 -17.617 H 66 NIL_66    0.000
1000 H_35121 -18.912 14.187 -13.760 H 66 NIL_66    0.000
1001 H_35122 -17.439 13.779 -14.635 H 66 NIL_66    0.000
1002 H_35123 -17.343 14.619 -13.070 H 66 NIL_66    0.000
1003 H_2345 -15.357 13.978 -14.208 H 66 NIL_66    0.000
1004 H_35101 -18.490 12.504 -12.050 H 66 NIL_66    0.000
1005 H_35102 -18.277 11.743 -13.598 H 66 NIL_66    0.000
1006 H_23481 -12.450 11.918 -12.963 H 66 NIL_66    0.000
1007 H_23482 -13.992 11.071 -13.055 H 66 NIL_66    0.000
1008 H_23461 -12.834 14.655 -12.655 H 66 NIL_66    0.000
1009 H_23462 -14.485 15.174 -12.262 H 66 NIL_66    0.000
1010 H_35081 -16.510 11.057 -12.031 H 66 NIL_66    0.000
1011 H_35082 -15.921 11.811 -13.494 H 66 NIL_66    0.000
1012 HH -15.831 15.776 -15.126 H 66 NIL_66    0.000
1013 C_737 -15.389 15.504 18.400 C.3 67 NIL_67    0.000
1014 C.fb -15.002 14.366 17.430 C.3 67 NIL_67    0.000
1015 N -14.697 16.719 17.943 N.am 67 NIL_67    0.000
1016 C_735 -14.506 15.142 16.198 C.3 67 NIL_67    0.000
1017 NH -13.914 13.541 17.969 N.am 67 NIL_67    0.000
1018 C_734 -13.832 16.365 16.834 C.3 67 NIL_67    0.000
1019 C_739 -13.518 17.472 15.861 C.2 67 NIL_67    0.000
1020 O -12.902 17.197 14.848 O.2 67 NIL_67    0.000
1021 H_734 -12.871 16.061 17.260 H 67 NIL_67    0.000
1022 H_7351 -13.822 14.565 15.572 H 67 NIL_67    0.000
1023 H_7352 -15.359 15.460 15.592 H 67 NIL_67    0.000
1024 H.fb -15.865 13.738 17.190 H 67 NIL_67    0.000
1025 H_7371 -16.467 15.678 18.348 H 67 NIL_67    0.000
1026 H_7372 -15.107 15.265 19.429 H 67 NIL_67    0.000
1027 HH -13.307 13.979 18.645 H 67 NIL_67    0.000
1028 C_1417 -8.908 23.079 -6.842 C.2 68 NIL_68    0.000
1029 C_1412 -10.063 23.245 -5.879 C.3 68 NIL_68    0.000
1030 O -7.788 23.451 -6.545 O.2 68 NIL_68    0.000
1031 N -11.137 22.290 -6.091 N.am 68 NIL_68    0.000
1032 C_1413 -9.701 23.165 -4.388 C.3 68 NIL_68    0.000
1033 C_1415 -11.746 21.918 -4.806 C.3 68 NIL_68    0.000
1034 C_1414 -10.998 22.671 -3.674 C.3 68 NIL_68    0.000
1035 N -11.869 23.787 -3.137 N.am 68 NIL_68    0.000
1036 C_1426 -10.601 21.631 -2.607 C.2 68 NIL_68    0.000
1037 O -9.757 20.773 -2.794 O.2 68 NIL_68    0.000
1038 H_14151 -11.648 20.836 -4.683 H 68 NIL_68    0.000
1039 H_14152 -12.810 22.166 -4.809 H 68 NIL_68    0.000
1040 H_14131 -8.887 22.445 -4.282 H 68 NIL_68    0.000
1041 H_14132 -9.334 24.115 -3.996 H 68 NIL_68    0.000
1042 H_1412 -10.472 24.229 -6.110 H 68 NIL_68    0.000
1043 C_766 -10.714 11.975 13.475 C.2 69 NIL_69    0.000
1044 C_767 -11.042 11.458 12.310 C.2 69 NIL_69    0.000
1045 C_2285 -10.072 11.260 14.644 C.3 69 NIL_69    0.000
1046 H_22851 -10.882 10.704 15.110 H 69 NIL_69    0.000
1047 H_22852 -9.376 10.518 14.245 H 69 NIL_69    0.000
1048 H_767 -10.903 10.433 11.986 H 69 NIL_69    0.000
1049 C_3011 -4.944 13.823 -0.318 C.3 70 NIL_70    0.000
1050 C_3010 -6.038 14.580 0.460 C.3 70 NIL_70    0.000
1051 C_3516 -5.550 12.729 -1.212 C.3 70 NIL_70    0.000
1052 H_35161 -6.082 11.990 -0.609 H 70 NIL_70    0.000
1053 H_35162 -4.760 12.220 -1.767 H 70 NIL_70    0.000
1054 H_35163 -6.250 13.162 -1.930 H 70 NIL_70    0.000
1055 H_30101 -6.768 14.971 -0.244 H 70 NIL_70    0.000
1056 H_30102 -6.586 13.858 1.072 H 70 NIL_70    0.000
1057 H_30111 -4.244 13.367 0.385 H 70 NIL_70    0.000
1058 H_30112 -4.374 14.511 -0.941 H 70 NIL_70    0.000
1059 C_2531 -9.812 14.950 4.810 C.3 71 NIL_71    0.000
1060 C_2530 -11.348 14.784 4.729 C.3 71 NIL_71    0.000
1061 C_3500 -9.277 15.757 3.611 C.3 71 NIL_71    0.000
1062 H_35001 -8.187 15.802 3.635 H 71 NIL_71    0.000
1063 H_35002 -9.670 16.776 3.620 H 71 NIL_71    0.000
1064 H_35003 -9.567 15.285 2.673 H 71 NIL_71    0.000
1065 H_25301 -11.805 15.751 4.954 H 71 NIL_71    0.000
1066 H_25302 -11.628 14.570 3.700 H 71 NIL_71    0.000
1067 H_25311 -9.318 13.977 4.818 H 71 NIL_71    0.000
1068 H_25312 -9.548 15.454 5.742 H 71 NIL_71    0.000
1069 C_2526 -12.318 17.693 -2.563 C.3 72 NIL_72    0.000
1070 C_2527 -13.175 18.359 -1.457 C.3 72 NIL_72    0.000
1071 C_3504 -14.543 17.686 -1.236 C.3 72 NIL_72    0.000
1072 H_35041 -15.162 17.767 -2.132 H 72 NIL_72    0.000
1073 H_35042 -15.065 18.178 -0.413 H 72 NIL_72    0.000
1074 H_35043 -14.432 16.633 -0.976 H 72 NIL_72    0.000
1075 H_25271 -13.330 19.410 -1.704 H 72 NIL_72    0.000
1076 H_25272 -12.630 18.331 -0.515 H 72 NIL_72    0.000
1077 H_25261 -12.794 17.896 -3.518 H 72 NIL_72    0.000
1078 H_25262 -11.335 18.173 -2.587 H 72 NIL_72    0.000
1079 C_188 -12.029 8.074 17.660 C.3 73 NIL_73    0.000
1080 C_112 -12.394 9.461 18.223 C.3 73 NIL_73    0.000
1081 H_1121 -13.479 9.583 18.166 H 73 NIL_73    0.000
1082 H_1122 -12.098 9.515 19.274 H 73 NIL_73    0.000
1083 H_1881 -12.576 7.296 18.196 H 73 NIL_73    0.000
1084 H_1882 -10.961 7.871 17.771 H 73 NIL_73    0.000
1085 H_1883 -12.287 8.010 16.600 H 73 NIL_73    0.000
1086 C_1476 -12.015 25.023 -3.957 C.3 74 NIL_74    0.000
1087 C_1477 -13.197 24.963 -4.954 C.3 74 NIL_74    0.000
1088 C_3532 -13.475 26.342 -5.578 C.3 74 NIL_74    0.000
1089 H_35321 -12.616 26.691 -6.154 H 74 NIL_74    0.000
1090 H_35322 -13.698 27.077 -4.800 H 74 NIL_74    0.000
1091 H_35323 -14.336 26.285 -6.248 H 74 NIL_74    0.000
1092 H_14771 -14.099 24.623 -4.438 H 74 NIL_74    0.000
1093 H_14772 -12.992 24.255 -5.758 H 74 NIL_74    0.000
1094 H_14761 -11.098 25.274 -4.486 H 74 NIL_74    0.000
1095 H_14762 -12.188 25.862 -3.277 H 74 NIL_74    0.000
1096 C_267 -8.939 20.766 16.505 C.3 75 NIL_75    0.000
1097 N -8.228 21.229 17.684 N.am 75 NIL_75    0.000
1098 C_268 -9.759 21.968 16.023 C.3 75 NIL_75    0.000
1099 C_272 -8.067 20.133 15.447 C.2 75 NIL_75    0.000
1100 C_270 -8.900 22.421 18.220 C.3 75 NIL_75    0.000
1101 C.fa -10.138 22.671 17.338 C.3 75 NIL_75    0.000
1102 O -8.477 20.014 14.307 O.2 75 NIL_75    0.000
1103 NH -11.325 22.063 17.953 N.am 75 NIL_75    0.000
1104 H.fa -10.307 23.742 17.186 H 75 NIL_75    0.000
1105 H_2701 -8.214 23.270 18.145 H 75 NIL_75    0.000
1106 H_2702 -9.182 22.269 19.266 H 75 NIL_75    0.000
1107 H_2681 -10.626 21.662 15.432 H 75 NIL_75    0.000
1108 H_2682 -9.135 22.630 15.416 H 75 NIL_75    0.000
1109 H_267 -9.623 19.980 16.840 H 75 NIL_75    0.000
1110 HH -11.164 21.431 18.722 H 75 NIL_75    0.000
1111 C_245 -5.858 19.649 12.424 C.2 76 NIL_76    0.000
1112 C_243 -5.527 19.770 13.690 C.2 76 NIL_76    0.000
1113 C_2292 -6.011 18.934 14.852 C.3 76 NIL_76    0.000
1114 H_22921 -6.634 18.122 14.466 H 76 NIL_76    0.000
1115 H_22922 -5.154 18.457 15.321 H 76 NIL_76    0.000
1116 H_245 -6.539 18.915 12.007 H 76 NIL_76    0.000
1117 C_3518 -0.350 15.420 -5.616 C.3 77 NIL_77    0.000
1118 C_3009 -1.602 16.122 -5.060 C.3 77 NIL_77    0.000
1119 C_3008 -2.297 15.262 -3.980 C.3 77 NIL_77    0.000
1120 H_30081 -2.670 14.345 -4.427 H 77 NIL_77    0.000
1121 H_30082 -1.535 14.932 -3.268 H 77 NIL_77    0.000
1122 H_30091 -1.310 17.087 -4.635 H 77 NIL_77    0.000
1123 H_30092 -2.288 16.321 -5.884 H 77 NIL_77    0.000
1124 H_35181 0.100 16.025 -6.404 H 77 NIL_77    0.000
1125 H_35182 -0.607 14.445 -6.035 H 77 NIL_77    0.000
1126 H_35183 0.394 15.276 -4.829 H 77 NIL_77    0.000
1127 O -5.781 19.249 1.663 O.2 78 NIL_78    0.000
1128 C_2960 -5.424 18.109 1.886 C.2 78 NIL_78    0.000
1129 C_2956 -5.312 17.032 0.797 C.3 78 NIL_78    0.000
1130 C_2955 -3.879 17.155 0.204 C.3 78 NIL_78    0.000
1131 C_2957 -6.205 17.385 -0.434 C.3 78 NIL_78    0.000
1132 N -5.499 15.641 1.356 N.am 78 NIL_78    0.000
1133 C_2954 -4.042 17.396 -1.308 C.3 78 NIL_78    0.000
1134 N -5.411 17.037 -1.616 N.am 78 NIL_78    0.000
1135 C_2959 -2.977 16.708 -2.129 C.2 78 NIL_78    0.000
1136 O -1.812 16.800 -1.790 O.2 78 NIL_78    0.000
1137 H_2954 -3.937 18.466 -1.511 H 78 NIL_78    0.000
1138 H_29571 -7.179 16.893 -0.412 H 78 NIL_78    0.000
1139 H_29572 -6.389 18.460 -0.496 H 78 NIL_78    0.000
1140 H_29551 -3.302 16.248 0.398 H 78 NIL_78    0.000
1141 H_29552 -3.322 17.987 0.644 H 78 NIL_78    0.000
1142 C_2521 -11.981 15.965 -9.492 C.3 79 NIL_79    0.000
1143 C_2522 -12.078 17.397 -10.051 C.3 79 NIL_79    0.000
1144 C_3506 -11.659 17.433 -11.532 C.3 79 NIL_79    0.000
1145 H_35061 -12.361 16.864 -12.143 H 79 NIL_79    0.000
1146 H_35062 -10.659 17.011 -11.664 H 79 NIL_79    0.000
1147 H_35063 -11.654 18.460 -11.903 H 79 NIL_79    0.000
1148 H_25221 -11.427 18.058 -9.474 H 79 NIL_79    0.000
1149 H_25222 -13.100 17.769 -9.958 H 79 NIL_79    0.000
1150 H_25211 -12.527 15.311 -10.167 H 79 NIL_79    0.000
1151 H_25212 -10.935 15.645 -9.511 H 79 NIL_79    0.000
1152 C.fc -5.488 14.076 17.518 C.3 80 NIL_80    0.000
1153 C_134 -6.051 13.833 16.105 C.3 80 NIL_80    0.000
1154 C_136 -6.434 13.255 18.411 C.3 80 NIL_80    0.000
1155 NH -5.537 15.488 17.912 N.am 80 NIL_80    0.000
1156 C_133 -7.559 13.644 16.334 C.3 80 NIL_80    0.000
1157 N -7.686 13.072 17.666 N.am 80 NIL_80    0.000
1158 C_138 -8.282 12.856 15.259 C.2 80 NIL_80    0.000
1159 O -7.931 12.929 14.097 O.2 80 NIL_80    0.000
1160 H_133 -8.037 14.628 16.366 H 80 NIL_80    0.000
1161 H_1361 -5.997 12.271 18.602 H 80 NIL_80    0.000
1162 H_1362 -6.622 13.761 19.363 H 80 NIL_80    0.000
1163 H_1341 -5.839 14.655 15.417 H 80 NIL_80    0.000
1164 H_1342 -5.618 12.915 15.697 H 80 NIL_80    0.000
1165 H.fc -4.459 13.713 17.602 H 80 NIL_80    0.000
1166 HH -6.289 15.761 18.526 H 80 NIL_80    0.000
1167 C_1480 -14.663 22.964 5.374 C.3 81 NIL_81    0.000
1168 C_1481 -15.440 22.409 4.154 C.3 81 NIL_81    0.000
1169 C_3528 -16.500 21.355 4.528 C.3 81 NIL_81    0.000
1170 H_35281 -17.057 21.052 3.639 H 81 NIL_81    0.000
1171 H_35282 -17.210 21.764 5.250 H 81 NIL_81    0.000
1172 H_35283 -16.039 20.463 4.956 H 81 NIL_81    0.000
1173 H_14811 -14.759 21.984 3.418 H 81 NIL_81    0.000
1174 H_14812 -15.944 23.245 3.664 H 81 NIL_81    0.000
1175 H_14801 -14.015 23.769 5.036 H 81 NIL_81    0.000
1176 H_14802 -15.390 23.458 6.025 H 81 NIL_81    0.000
1177 C_3013 -1.766 16.673 6.889 C.3 82 NIL_82    0.000
1178 C_3012 -2.435 17.747 5.997 C.3 82 NIL_82    0.000
1179 C_3514 -0.409 16.232 6.312 C.3 82 NIL_82    0.000
1180 H_35141 0.035 15.459 6.943 H 82 NIL_82    0.000
1181 H_35142 0.282 17.077 6.267 H 82 NIL_82    0.000
1182 H_35143 -0.530 15.826 5.305 H 82 NIL_82    0.000
1183 H_30121 -1.806 18.642 5.996 H 82 NIL_82    0.000
1184 H_30122 -2.465 17.389 4.967 H 82 NIL_82    0.000
1185 H_30131 -2.414 15.800 6.987 H 82 NIL_82    0.000
1186 H_30132 -1.611 17.070 7.895 H 82 NIL_82    0.000
1187 C_769 -15.848 22.615 18.100 C.3 83 NIL_83    0.000
1188 C_770 -17.068 22.840 17.187 C.3 83 NIL_83    0.000
1189 H_7701 -17.639 23.706 17.529 H 83 NIL_83    0.000
1190 H_7702 -17.731 21.972 17.195 H 83 NIL_83    0.000
1191 H_7703 -16.746 23.024 16.160 H 83 NIL_83    0.000
1192 H_7691 -15.268 23.541 18.137 H 83 NIL_83    0.000
1193 H_7692 -16.186 22.380 19.114 H 83 NIL_83    0.000
1194 C_660 -2.723 19.010 18.101 C.3 84 NIL_84    0.000
1195 C_662 -1.826 20.035 17.380 C.3 84 NIL_84    0.000
1196 H_6621 -1.718 19.778 16.323 H 84 NIL_84    0.000
1197 H_6622 -0.833 20.047 17.835 H 84 NIL_84    0.000
1198 H_6623 -2.240 21.043 17.454 H 84 NIL_84    0.000
1199 H_6601 -2.221 18.040 18.095 H 84 NIL_84    0.000
1200 H_6602 -2.853 19.321 19.142 H 84 NIL_84    0.000
1201 C_1479 1.977 6.040 1.204 C.3 85 NIL_85    0.000
1202 C_1478 0.508 6.236 0.759 C.3 85 NIL_85    0.000
1203 C_3530 2.480 4.594 1.050 C.3 85 NIL_85    0.000
1204 H_35301 1.869 3.902 1.633 H 85 NIL_85    0.000
1205 H_35302 3.510 4.523 1.408 H 85 NIL_85    0.000
1206 H_35303 2.465 4.289 0.002 H 85 NIL_85    0.000
1207 H_14781 0.289 7.307 0.779 H 85 NIL_85    0.000
1208 H_14782 0.416 5.932 -0.281 H 85 NIL_85    0.000
1209 H_14791 2.103 6.348 2.244 H 85 NIL_85    0.000
1210 H_14792 2.612 6.697 0.605 H 85 NIL_85    0.000
1211 C_1303 -1.172 6.184 -9.175 C.3 86 NIL_86    0.000
1212 C_1302 -1.896 5.676 -10.426 C.3 86 NIL_86    0.000
1213 C_1304 -0.606 4.912 -8.486 C.3 86 NIL_86    0.000
1214 N -1.137 4.514 -10.829 N.am 86 NIL_86    0.000
1215 C_1307 -2.101 6.746 -11.471 C.2 86 NIL_86    0.000
1216 C_1305 -0.747 3.824 -9.602 C.3 86 NIL_86    0.000
1217 N 0.806 5.193 -8.050 N.am 86 NIL_86    0.000
1218 C_1316 -1.533 4.553 -7.312 C.2 86 NIL_86    0.000
1219 O -2.700 7.762 -11.164 O.2 86 NIL_86    0.000
1220 O -2.566 3.922 -7.437 O.2 86 NIL_86    0.000
1221 H_13051 0.169 3.265 -9.755 H 86 NIL_86    0.000
1222 H_13052 -1.532 3.099 -9.376 H 86 NIL_86    0.000
1223 H_1302 -2.895 5.327 -10.147 H 86 NIL_86    0.000
1224 H_13031 -0.359 6.846 -9.491 H 86 NIL_86    0.000
1225 H_13032 -1.835 6.759 -8.524 H 86 NIL_86    0.000
1226 O -3.810 -4.549 1.057 O.2 87 NIL_87    0.000
1227 C_2478 -2.655 -4.807 1.339 C.2 87 NIL_87    0.000
1228 C_2474 -1.539 -5.011 0.296 C.3 87 NIL_87    0.000
1229 C_2473 -0.835 -3.638 0.129 C.3 87 NIL_87    0.000
1230 C_2475 -2.166 -5.158 -1.139 C.3 87 NIL_87    0.000
1231 N -0.581 -6.076 0.775 N.am 87 NIL_87    0.000
1232 C_2472 -1.843 -2.858 -0.727 C.3 87 NIL_87    0.000
1233 N -2.297 -3.808 -1.721 N.am 87 NIL_87    0.000
1234 C_2477 -1.445 -1.502 -1.245 C.2 87 NIL_87    0.000
1235 O -0.651 -0.794 -0.655 O.2 87 NIL_87    0.000
1236 H_2472 -2.711 -2.629 -0.107 H 87 NIL_87    0.000
1237 H_24751 -1.536 -5.729 -1.820 H 87 NIL_87    0.000
1238 H_24752 -3.147 -5.642 -1.092 H 87 NIL_87    0.000
1239 H_24731 0.114 -3.743 -0.404 H 87 NIL_87    0.000
1240 H_24732 -0.655 -3.132 1.076 H 87 NIL_87    0.000
1241 O 2.976 -1.147 -2.874 O.2 88 NIL_88    0.000
1242 C_2958 4.165 -0.935 -2.722 C.2 88 NIL_88    0.000
1243 C_2946 5.226 -1.371 -3.754 C.3 88 NIL_88    0.000
1244 C_2945 4.824 -2.746 -4.381 C.3 88 NIL_88    0.000
1245 C_2947 5.076 -0.405 -4.960 C.3 88 NIL_88    0.000
1246 N 6.643 -1.330 -3.225 N.am 88 NIL_88    0.000
1247 C_2944 5.112 -2.608 -5.887 C.3 88 NIL_88    0.000
1248 N 4.928 -1.201 -6.186 N.am 88 NIL_88    0.000
1249 C_2949 4.345 -3.535 -6.809 C.2 88 NIL_88    0.000
1250 O 4.010 -4.642 -6.430 O.2 88 NIL_88    0.000
1251 H_2944 6.160 -2.834 -6.089 H 88 NIL_88    0.000
1252 H_29471 4.182 0.216 -4.853 H 88 NIL_88    0.000
1253 H_29472 5.942 0.257 -5.046 H 88 NIL_88    0.000
1254 H_29451 3.756 -2.944 -4.267 H 88 NIL_88    0.000
1255 H_29452 5.349 -3.590 -3.930 H 88 NIL_88    0.000
1256 C_2849 5.064 0.386 5.570 C.3 89 NIL_89    0.000
1257 C_2848 5.191 -1.065 4.997 C.3 89 NIL_89    0.000
1258 C_2850 5.024 1.285 4.306 C.3 89 NIL_89    0.000
1259 N 6.200 0.798 6.462 N.am 89 NIL_89    0.000
1260 C_2855 3.687 0.540 6.222 C.2 89 NIL_89    0.000
1261 C_2847 5.444 -0.898 3.488 C.3 89 NIL_89    0.000
1262 N 4.926 0.412 3.136 N.am 89 NIL_89    0.000
1263 O 2.668 0.089 5.736 O.2 89 NIL_89    0.000
1264 C_2852 4.911 -2.016 2.614 C.2 89 NIL_89    0.000
1265 O 4.860 -3.159 3.028 O.2 89 NIL_89    0.000
1266 H_2847 6.522 -0.869 3.307 H 89 NIL_89    0.000
1267 H_28501 4.173 1.972 4.330 H 89 NIL_89    0.000
1268 H_28502 5.944 1.871 4.220 H 89 NIL_89    0.000
1269 H_28481 4.276 -1.641 5.152 H 89 NIL_89    0.000
1270 H_28482 5.988 -1.648 5.453 H 89 NIL_89    0.000
1271 C_3654 4.614 3.410 -16.312 C.2 90 NIL_90    0.000
1272 C_3652 4.874 2.108 -16.178 C.2 90 NIL_90    0.000
1273 C_3656 3.853 3.852 -17.310 C.2 90 NIL_90    0.000
1274 C_3574 4.374 1.207 -17.034 C.2 90 NIL_90    0.000
1275 C_3658 3.390 2.973 -18.203 C.2 90 NIL_90    0.000
1276 C_3668 3.430 5.306 -17.365 C.3 90 NIL_90    0.000
1277 C_2831 4.546 -0.212 -16.890 C.2 90 NIL_90    0.000
1278 C_3660 3.645 1.671 -18.065 C.2 90 NIL_90    0.000
1279 NH 2.194 5.646 -16.623 N.am 90 NIL_90    0.000
1280 O 4.583 -0.839 -17.933 O.2 90 NIL_90    0.000
1281 C_1297 1.290 4.785 -16.080 C.2 90 NIL_90    0.000
1282 C_1292 0.084 5.437 -15.424 C.3 90 NIL_90    0.000
1283 O 1.417 3.575 -16.063 O.2 90 NIL_90    0.000
1284 N -1.164 4.642 -15.551 N.am 90 NIL_90    0.000
1285 C_1293 0.383 5.602 -13.920 C.3 90 NIL_90    0.000
1286 C_1295 -1.757 4.486 -14.215 C.3 90 NIL_90    0.000
1287 C_1294 -0.933 5.279 -13.174 C.3 90 NIL_90    0.000
1288 N -1.636 6.537 -12.735 N.am 90 NIL_90    0.000
1289 C_1306 -0.632 4.271 -12.056 C.2 90 NIL_90    0.000
1290 C_3544 -2.021 7.494 -13.819 C.3 90 NIL_90    0.000
1291 O 0.029 3.266 -12.254 O.2 90 NIL_90    0.000
1292 C_3546 -1.079 8.701 -14.071 C.3 90 NIL_90    0.000
1293 C_3548 -0.845 9.596 -12.838 C.3 90 NIL_90    0.000
1294 H_35481 -0.362 9.038 -12.035 H 90 NIL_90    0.000
1295 H_35482 -1.790 10.008 -12.472 H 90 NIL_90    0.000
1296 H_35483 -0.192 10.433 -13.101 H 90 NIL_90    0.000
1297 H_35461 -1.526 9.315 -14.857 H 90 NIL_90    0.000
1298 H_35462 -0.119 8.372 -14.463 H 90 NIL_90    0.000
1299 H_35441 -3.015 7.890 -13.591 H 90 NIL_90    0.000
1300 H_35442 -2.133 6.964 -14.765 H 90 NIL_90    0.000
1301 H_12951 -1.778 3.419 -13.976 H 90 NIL_90    0.000
1302 H_12952 -2.781 4.863 -14.208 H 90 NIL_90    0.000
1303 H_12931 1.175 4.904 -13.635 H 90 NIL_90    0.000
1304 H_12932 0.771 6.590 -13.674 H 90 NIL_90    0.000
1305 H_1292 -0.075 6.415 -15.889 H 90 NIL_90    0.000
1306 H_3660 3.202 0.990 -18.788 H 90 NIL_90    0.000
1307 H_36681 4.233 5.929 -16.964 H 90 NIL_90    0.000
1308 H_36682 3.287 5.605 -18.408 H 90 NIL_90    0.000
1309 H_3658 2.756 3.310 -19.020 H 90 NIL_90    0.000
1310 H_3652 5.508 1.828 -15.355 H 90 NIL_90    0.000
1311 H_3654 5.006 4.110 -15.577 H 90 NIL_90    0.000
1312 HH 1.994 6.632 -16.546 H 90 NIL_90    0.000
1313 N -3.673 -1.639 -5.566 N.am 91 NIL_91    0.000
1314 C_2462 -2.339 -1.086 -5.682 C.3 91 NIL_91    0.000
1315 C_2465 -3.929 -1.713 -4.116 C.3 91 NIL_91    0.000
1316 C_2463 -1.546 -1.864 -4.620 C.3 91 NIL_91    0.000
1317 C_2467 -1.727 -1.075 -7.064 C.2 91 NIL_91    0.000
1318 C_2464 -2.553 -2.025 -3.437 C.3 91 NIL_91    0.000
1319 O -0.599 -0.648 -7.220 O.2 91 NIL_91    0.000
1320 N -2.136 -1.084 -2.339 N.am 91 NIL_91    0.000
1321 C_2476 -2.612 -3.506 -3.004 C.2 91 NIL_91    0.000
1322 O -2.941 -4.388 -3.773 O.2 91 NIL_91    0.000
1323 H_24631 -1.253 -2.835 -5.029 H 91 NIL_91    0.000
1324 H_24632 -0.635 -1.335 -4.333 H 91 NIL_91    0.000
1325 H_24651 -4.669 -2.484 -3.885 H 91 NIL_91    0.000
1326 H_24652 -4.348 -0.758 -3.798 H 91 NIL_91    0.000
1327 H_2462 -2.397 -0.031 -5.402 H 91 NIL_91    0.000
1328 O -4.184 -5.523 -16.346 O.2 92 NIL_92    0.000
1329 C_2349 -3.346 -5.111 -15.567 C.2 92 NIL_92    0.000
1330 C_2378 -1.960 -5.128 -15.919 C.2 92 NIL_92    0.000
1331 C_3627 -1.543 -5.780 -17.012 C.2 92 NIL_92    0.000
1332 C_3635 -1.049 -4.461 -15.194 C.2 92 NIL_92    0.000
1333 C_3629 -0.260 -5.746 -17.375 C.2 92 NIL_92    0.000
1334 C_3633 0.229 -4.422 -15.566 C.2 92 NIL_92    0.000
1335 C_3631 0.640 -5.057 -16.667 C.2 92 NIL_92    0.000
1336 C_3643 2.078 -5.010 -17.155 C.3 92 NIL_92    0.000
1337 NH 3.074 -4.270 -16.373 N.am 92 NIL_92    0.000
1338 C_2832 3.157 -2.921 -16.327 C.2 92 NIL_92    0.000
1339 C_2827 4.407 -2.394 -15.634 C.3 92 NIL_92    0.000
1340 O 2.290 -2.206 -16.794 O.2 92 NIL_92    0.000
1341 N 4.607 -0.925 -15.717 N.am 92 NIL_92    0.000
1342 C_2828 4.409 -2.807 -14.144 C.3 92 NIL_92    0.000
1343 C_2830 4.664 -0.406 -14.339 C.3 92 NIL_92    0.000
1344 C_2829 4.888 -1.569 -13.343 C.3 92 NIL_92    0.000
1345 N 6.342 -1.692 -12.938 N.am 92 NIL_92    0.000
1346 C_2841 3.909 -1.342 -12.175 C.2 92 NIL_92    0.000
1347 C_3522 7.304 -2.140 -13.991 C.3 92 NIL_92    0.000
1348 O 2.703 -1.296 -12.340 O.2 92 NIL_92    0.000
1349 C_3524 8.484 -1.188 -14.316 C.3 92 NIL_92    0.000
1350 C_3526 8.058 0.147 -14.950 C.3 92 NIL_92    0.000
1351 H_35261 7.409 -0.021 -15.812 H 92 NIL_92    0.000
1352 H_35262 8.937 0.697 -15.291 H 92 NIL_92    0.000
1353 H_35263 7.540 0.772 -14.223 H 92 NIL_92    0.000
1354 H_35241 9.141 -1.702 -15.023 H 92 NIL_92    0.000
1355 H_35242 9.081 -0.989 -13.424 H 92 NIL_92    0.000
1356 H_35221 6.804 -2.331 -14.933 H 92 NIL_92    0.000
1357 H_35222 7.726 -3.094 -13.662 H 92 NIL_92    0.000
1358 H_28301 3.723 0.117 -14.146 H 92 NIL_92    0.000
1359 H_28302 5.481 0.289 -14.200 H 92 NIL_92    0.000
1360 H_28281 3.399 -3.103 -13.850 H 92 NIL_92    0.000
1361 H_28282 5.044 -3.680 -13.970 H 92 NIL_92    0.000
1362 H_2827 5.250 -2.875 -16.139 H 92 NIL_92    0.000
1363 H_36431 2.445 -6.036 -17.246 H 92 NIL_92    0.000
1364 H_36432 2.081 -4.580 -18.161 H 92 NIL_92    0.000
1365 H_3633 0.923 -3.847 -14.958 H 92 NIL_92    0.000
1366 H_3629 0.049 -6.277 -18.273 H 92 NIL_92    0.000
1367 H_3635 -1.326 -3.902 -14.305 H 92 NIL_92    0.000
1368 H_3627 -2.240 -6.341 -17.631 H 92 NIL_92    0.000
1369 HH 3.777 -4.814 -15.896 H 92 NIL_92    0.000
1370 C_2373 -2.966 -5.852 6.056 C.2 93 NIL_93    0.000
1371 C_2367 -2.245 -4.909 5.080 C.3 93 NIL_93    0.000
1372 O -3.359 -6.955 5.725 O.2 93 NIL_93    0.000
1373 C_2366 -1.000 -5.662 4.529 C.3 93 NIL_93    0.000
1374 C_2368 -3.138 -4.767 3.812 C.3 93 NIL_93    0.000
1375 N -1.899 -3.562 5.666 N.am 93 NIL_93    0.000
1376 C_2365 -0.917 -5.251 3.048 C.3 93 NIL_93    0.000
1377 N -2.279 -4.937 2.631 N.am 93 NIL_93    0.000
1378 C_2370 -0.245 -6.217 2.093 C.2 93 NIL_93    0.000
1379 O 0.517 -7.077 2.491 O.2 93 NIL_93    0.000
1380 H_2365 -0.333 -4.336 2.969 H 93 NIL_93    0.000
1381 H_23681 -3.909 -5.540 3.777 H 93 NIL_93    0.000
1382 H_23682 -3.628 -3.790 3.783 H 93 NIL_93    0.000
1383 H_23661 -1.139 -6.744 4.581 H 93 NIL_93    0.000
1384 H_23662 -0.090 -5.428 5.084 H 93 NIL_93    0.000
1385 C_137 1.219 -4.888 18.121 C.2 94 NIL_94    0.000
1386 C_110 0.194 -5.352 17.075 C.3 94 NIL_94    0.000
1387 O 1.085 -5.091 19.314 O.2 94 NIL_94    0.000
1388 C_109 -1.081 -4.490 17.246 C.3 94 NIL_94    0.000
1389 C_111 -0.266 -6.788 17.477 C.3 94 NIL_94    0.000
1390 N 0.683 -5.262 15.652 N.am 94 NIL_94    0.000
1391 C_108 -2.148 -5.407 17.873 C.3 94 NIL_94    0.000
1392 N -1.743 -6.765 17.466 N.3 94 NIL_94    0.000
1393 C_113 -3.530 -4.961 17.439 C.2 94 NIL_94    0.000
1394 O -4.203 -5.567 16.626 O.2 94 NIL_94    0.000
1395 H_108 -2.089 -5.322 18.962 H 94 NIL_94    0.000
1396 H_1111 0.124 -7.549 16.797 H 94 NIL_94    0.000
1397 H_1112 0.066 -7.046 18.485 H 94 NIL_94    0.000
1398 H_1091 -1.431 -4.132 16.275 H 94 NIL_94    0.000
1399 H_1092 -0.909 -3.607 17.870 H 94 NIL_94    0.000
1400 O -1.918 -2.065 7.345 O.2 95 NIL_95    0.000
1401 C_2372 -2.157 -3.193 6.952 C.2 95 NIL_95    0.000
1402 C_2376 -2.767 -4.192 7.921 C.3 95 NIL_95    0.000
1403 NH -3.195 -5.452 7.321 N.am 95 NIL_95    0.000
1404 C_2388 -1.790 -4.425 9.100 C.3 95 NIL_95    0.000
1405 C_2396 -2.460 -5.088 10.325 C.3 95 NIL_95    0.000
1406 N -1.573 -4.952 11.485 N.3 95 NIL_95    0.000
1407 N -1.691 -3.863 12.291 N.2 95 NIL_95    0.000
1408 N -1.118 -4.124 13.417 N.2 95 NIL_95    0.000
1409 H_23961 -3.416 -4.601 10.539 H 95 NIL_95    0.000
1410 H_23962 -2.649 -6.147 10.121 H 95 NIL_95    0.000
1411 H_23881 -1.382 -3.463 9.420 H 95 NIL_95    0.000
1412 H_23882 -0.946 -5.034 8.765 H 95 NIL_95    0.000
1413 H_2376 -3.667 -3.704 8.305 H 95 NIL_95    0.000
1414 HH -3.693 -6.087 7.929 H 95 NIL_95    0.000
1415 C_1312 -1.875 5.474 3.662 C.3 96 NIL_96    0.000
1416 N -2.122 4.084 3.313 N.am 96 NIL_96    0.000
1417 C_1313 -1.684 5.507 5.187 C.3 96 NIL_96    0.000
1418 C_1317 -0.752 6.101 2.864 C.2 96 NIL_96    0.000
1419 C_1315 -2.540 3.334 4.504 C.3 96 NIL_96    0.000
1420 C_1314 -2.499 4.290 5.725 C.3 96 NIL_96    0.000
1421 O -0.121 7.038 3.317 O.2 96 NIL_96    0.000
1422 N -3.899 4.638 6.177 N.am 96 NIL_96    0.000
1423 C_1320 -1.667 3.578 6.802 C.2 96 NIL_96    0.000
1424 O -0.463 3.421 6.725 O.2 96 NIL_96    0.000
1425 H_13151 -1.841 2.503 4.639 H 96 NIL_96    0.000
1426 H_13152 -3.541 2.921 4.360 H 96 NIL_96    0.000
1427 H_13131 -0.617 5.397 5.387 H 96 NIL_96    0.000
1428 H_13132 -1.984 6.458 5.632 H 96 NIL_96    0.000
1429 H_1312 -2.770 6.037 3.387 H 96 NIL_96    0.000
1430 C_3520 3.452 -5.728 -10.863 C.3 97 NIL_97    0.000
1431 C_3007 4.262 -4.755 -9.988 C.3 97 NIL_97    0.000
1432 C_3006 3.345 -3.963 -9.030 C.3 97 NIL_97    0.000
1433 H_30061 2.609 -3.421 -9.619 H 97 NIL_97    0.000
1434 H_30062 2.759 -4.689 -8.460 H 97 NIL_97    0.000
1435 H_30071 5.000 -5.317 -9.410 H 97 NIL_97    0.000
1436 H_30072 4.797 -4.074 -10.652 H 97 NIL_97    0.000
1437 H_35201 2.748 -5.183 -11.497 H 97 NIL_97    0.000
1438 H_35202 2.892 -6.435 -10.246 H 97 NIL_97    0.000
1439 H_35203 4.124 -6.295 -11.511 H 97 NIL_97    0.000
1440 C_2878 5.173 3.175 10.249 C.3 98 NIL_98    0.000
1441 N 4.716 3.257 11.642 N.3 98 NIL_98    0.000
1442 C_2870 4.471 2.015 9.505 C.3 98 NIL_98    0.000
1443 N 5.532 3.887 12.531 N.2 98 NIL_98    0.000
1444 C_2858 4.658 2.034 7.969 C.3 98 NIL_98    0.000
1445 N 5.303 3.430 13.714 N.2 98 NIL_98    0.000
1446 C_2854 6.062 1.651 7.517 C.2 98 NIL_98    0.000
1447 NH 3.596 1.229 7.370 N.am 98 NIL_98    0.000
1448 O 7.039 2.097 8.088 O.2 98 NIL_98    0.000
1449 H_2858 4.502 3.056 7.612 H 98 NIL_98    0.000
1450 H_28701 4.808 1.054 9.904 H 98 NIL_98    0.000
1451 H_28702 3.400 2.092 9.707 H 98 NIL_98    0.000
1452 H_28781 6.256 3.031 10.236 H 98 NIL_98    0.000
1453 H_28782 4.939 4.120 9.749 H 98 NIL_98    0.000
1454 HH 2.695 1.281 7.821 H 98 NIL_98    0.000
1455 O 6.253 -1.144 16.745 O.2 99 NIL_99    0.000
1456 C_262 5.339 -0.889 17.507 C.2 99 NIL_99    0.000
1457 C_257 5.086 0.508 18.058 C.3 99 NIL_99    0.000
1458 N 5.946 1.552 17.461 N.3 99 NIL_99    0.000
1459 C_258 3.624 0.970 17.838 C.3 99 NIL_99    0.000
1460 C_260 5.171 2.798 17.347 C.3 99 NIL_99    0.000
1461 C_259 3.672 2.401 17.245 C.3 99 NIL_99    0.000
1462 N 3.170 2.382 15.824 N.am 99 NIL_99    0.000
1463 C_271 2.893 3.346 18.175 C.2 99 NIL_99    0.000
1464 O 3.266 3.619 19.301 O.2 99 NIL_99    0.000
1465 H_2601 5.493 3.387 16.485 H 99 NIL_99    0.000
1466 H_2602 5.358 3.388 18.248 H 99 NIL_99    0.000
1467 H_2581 3.083 0.297 17.168 H 99 NIL_99    0.000
1468 H_2582 3.094 0.948 18.793 H 99 NIL_99    0.000
1469 H_257 5.264 0.465 19.137 H 99 NIL_99    0.000
1470 C_2528 -0.080 -7.038 -0.232 C.3 100 NIL_100    0.000
1471 C_2529 -1.083 -8.182 -0.523 C.3 100 NIL_100    0.000
1472 C_3502 -0.873 -9.395 0.406 C.3 100 NIL_100    0.000
1473 H_35021 0.135 -9.800 0.292 H 100 NIL_100    0.000
1474 H_35022 -1.586 -10.183 0.152 H 100 NIL_100    0.000
1475 H_35023 -1.023 -9.126 1.453 H 100 NIL_100    0.000
1476 H_25291 -0.966 -8.508 -1.560 H 100 NIL_100    0.000
1477 H_25292 -2.110 -7.826 -0.419 H 100 NIL_100    0.000
1478 H_25281 0.862 -7.473 0.110 H 100 NIL_100    0.000
1479 H_25282 0.166 -6.504 -1.150 H 100 NIL_100    0.000
1480 C_726 -3.325 2.584 18.303 C.3 101 NIL_101    0.000
1481 C_725 -3.652 4.099 18.239 C.3 101 NIL_101    0.000
1482 C_727 -4.434 1.827 17.528 C.3 101 NIL_101    0.000
1483 N -4.980 4.203 17.601 N.3 101 NIL_101    0.000
1484 C_729 -2.588 4.910 17.510 C.2 101 NIL_101    0.000
1485 C_728 -5.591 2.866 17.475 C.3 101 NIL_101    0.000
1486 N -3.921 1.422 16.166 N.am 101 NIL_101    0.000
1487 C_738 -4.918 0.649 18.396 C.2 101 NIL_101    0.000
1488 O -2.847 5.645 16.575 O.2 101 NIL_101    0.000
1489 O -5.517 0.809 19.444 O.2 101 NIL_101    0.000
1490 H_7281 -6.166 2.779 16.549 H 101 NIL_101    0.000
1491 H_7282 -6.275 2.736 18.317 H 101 NIL_101    0.000
1492 H_725 -3.698 4.484 19.263 H 101 NIL_101    0.000
1493 H_7261 -2.336 2.343 17.907 H 101 NIL_101    0.000
1494 H_7262 -3.320 2.289 19.356 H 101 NIL_101    0.000
1495 N 4.420 -1.200 -10.934 N.am 102 NIL_102    0.000
1496 C_2935 5.822 -1.141 -10.587 C.3 102 NIL_102    0.000
1497 C_2938 3.668 -1.088 -9.683 C.3 102 NIL_102    0.000
1498 C_2936 5.942 -1.877 -9.244 C.3 102 NIL_102    0.000
1499 C_2939 6.783 -1.615 -11.650 C.2 102 NIL_102    0.000
1500 C_2937 4.552 -1.730 -8.561 C.3 102 NIL_102    0.000
1501 O 7.923 -1.909 -11.339 O.2 102 NIL_102    0.000
1502 N 4.065 -3.074 -8.065 N.am 102 NIL_102    0.000
1503 C_2948 4.770 -0.710 -7.430 C.2 102 NIL_102    0.000
1504 O 4.849 0.488 -7.616 O.2 102 NIL_102    0.000
1505 H_29361 6.198 -2.925 -9.404 H 102 NIL_102    0.000
1506 H_29362 6.750 -1.449 -8.645 H 102 NIL_102    0.000
1507 H_29381 2.673 -1.521 -9.764 H 102 NIL_102    0.000
1508 H_29382 3.516 -0.024 -9.507 H 102 NIL_102    0.000
1509 H_2935 6.058 -0.085 -10.428 H 102 NIL_102    0.000
1510 N -3.847 1.752 11.660 N.3 103 NIL_103    0.000
1511 C_1343 -3.511 1.742 10.238 C.3 103 NIL_103    0.000
1512 N -5.130 1.626 12.087 N.2 103 NIL_103    0.000
1513 C_1335 -4.146 2.949 9.516 C.3 103 NIL_103    0.000
1514 N -5.149 1.883 13.350 N.2 103 NIL_103    0.000
1515 C_1323 -3.748 2.987 8.022 C.3 103 NIL_103    0.000
1516 C_1319 -4.513 4.041 7.241 C.2 103 NIL_103    0.000
1517 NH -2.302 3.090 7.879 N.am 103 NIL_103    0.000
1518 O -5.647 4.340 7.571 O.2 103 NIL_103    0.000
1519 H_1323 -4.037 2.035 7.566 H 103 NIL_103    0.000
1520 H_13351 -5.232 2.872 9.603 H 103 NIL_103    0.000
1521 H_13352 -3.839 3.880 10.001 H 103 NIL_103    0.000
1522 H_13431 -3.874 0.814 9.788 H 103 NIL_103    0.000
1523 H_13432 -2.423 1.775 10.138 H 103 NIL_103    0.000
1524 HH -1.750 2.650 8.600 H 103 NIL_103    0.000
1525 C_2299 -3.611 2.532 15.220 C.3 104 NIL_104    0.000
1526 C_309 -3.990 2.238 13.787 C.2 104 NIL_104    0.000
1527 C_310 -3.194 2.186 12.740 C.2 104 NIL_104    0.000
1528 H_310 -2.127 2.384 12.711 H 104 NIL_104    0.000
1529 H_22991 -2.536 2.723 15.274 H 104 NIL_104    0.000
1530 H_22992 -4.115 3.455 15.486 H 104 NIL_104    0.000
1531 C_1471 1.843 5.193 -9.117 C.3 105 NIL_105    0.000
1532 C_1472 2.977 4.168 -8.898 C.3 105 NIL_105    0.000
1533 C_3542 2.502 2.708 -8.963 C.3 105 NIL_105    0.000
1534 H_35421 1.687 2.520 -8.256 H 105 NIL_105    0.000
1535 H_35422 3.324 2.052 -8.700 H 105 NIL_105    0.000
1536 H_35423 2.178 2.448 -9.973 H 105 NIL_105    0.000
1537 H_14721 3.458 4.341 -7.933 H 105 NIL_105    0.000
1538 H_14722 3.742 4.324 -9.661 H 105 NIL_105    0.000
1539 H_14711 2.289 6.192 -9.140 H 105 NIL_105    0.000
1540 H_14712 1.405 5.037 -10.102 H 105 NIL_105    0.000
1541 C_2356 -4.850 -2.251 -8.902 C.3 106 NIL_106    0.000
1542 C_2355 -5.136 -3.691 -9.360 C.3 106 NIL_106    0.000
1543 C_2357 -3.643 -2.438 -7.919 C.3 106 NIL_106    0.000
1544 N -3.812 -4.258 -9.514 N.am 106 NIL_106    0.000
1545 C_2360 -6.074 -3.855 -10.533 C.2 106 NIL_106    0.000
1546 C_2358 -3.131 -3.873 -8.269 C.3 106 NIL_106    0.000
1547 N -2.499 -1.487 -8.105 N.am 106 NIL_106    0.000
1548 C_2369 -4.233 -2.447 -6.497 C.2 106 NIL_106    0.000
1549 O -7.244 -3.567 -10.388 O.2 106 NIL_106    0.000
1550 O -5.187 -3.147 -6.204 O.2 106 NIL_106    0.000
1551 H_23581 -2.044 -3.902 -8.382 H 106 NIL_106    0.000
1552 H_23582 -3.410 -4.588 -7.487 H 106 NIL_106    0.000
1553 H_2355 -5.623 -4.234 -8.542 H 106 NIL_106    0.000
1554 H_23561 -4.600 -1.634 -9.764 H 106 NIL_106    0.000
1555 H_23562 -5.721 -1.803 -8.421 H 106 NIL_106    0.000
1556 O -2.312 2.434 1.830 O.2 107 NIL_107    0.000
1557 C_1428 -1.990 3.583 2.067 C.2 107 NIL_107    0.000
1558 C_1424 -1.411 4.541 1.012 C.3 107 NIL_107    0.000
1559 C_1423 -2.600 5.288 0.342 C.3 107 NIL_107    0.000
1560 C_1425 -0.797 3.734 -0.173 C.3 107 NIL_107    0.000
1561 N -0.493 5.567 1.635 N.am 107 NIL_107    0.000
1562 C_1422 -2.464 5.092 -1.180 C.3 107 NIL_107    0.000
1563 N -1.217 4.392 -1.412 N.am 107 NIL_107    0.000
1564 C_1427 -2.624 6.349 -2.006 C.2 107 NIL_107    0.000
1565 O -3.409 7.213 -1.661 O.2 107 NIL_107    0.000
1566 H_1422 -3.265 4.427 -1.514 H 107 NIL_107    0.000
1567 H_14251 0.289 3.680 -0.112 H 107 NIL_107    0.000
1568 H_14252 -1.180 2.714 -0.215 H 107 NIL_107    0.000
1569 H_14231 -2.597 6.348 0.612 H 107 NIL_107    0.000
1570 H_14232 -3.562 4.881 0.667 H 107 NIL_107    0.000
1571 N -5.570 -4.426 -11.665 N.am 108 NIL_108    0.000
1572 C_2347 -4.095 -4.316 -11.977 C.3 108 NIL_108    0.000
1573 C_3508 -6.413 -5.302 -12.545 C.3 108 NIL_108    0.000
1574 C_2346 -3.888 -2.954 -12.693 C.3 108 NIL_108    0.000
1575 C_2348 -3.526 -5.262 -13.080 C.3 108 NIL_108    0.000
1576 C_2359 -3.207 -4.402 -10.720 C.2 108 NIL_108    0.000
1577 C_3510 -7.842 -4.832 -12.927 C.3 108 NIL_108    0.000
1578 C_2345 -4.276 -3.254 -14.153 C.3 108 NIL_108    0.000
1579 N -3.736 -4.601 -14.379 N.am 108 NIL_108    0.000
1580 O -2.001 -4.558 -10.784 O.2 108 NIL_108    0.000
1581 C_3512 -7.880 -3.465 -13.639 C.3 108 NIL_108    0.000
1582 C_2350 -3.898 -2.172 -15.163 C.2 108 NIL_108    0.000
1583 O -2.773 -2.016 -15.597 O.2 108 NIL_108    0.000
1584 NH -4.935 -1.396 -15.564 N.am 108 NIL_108    0.000
1585 C_3705 -4.939 -0.539 -16.763 C.3 108 NIL_108    0.000
1586 C_3693 -4.055 0.692 -16.747 C.2 108 NIL_108    0.000
1587 C_3691 -4.371 1.756 -16.006 C.2 108 NIL_108    0.000
1588 C_3695 -2.953 0.745 -17.499 C.2 108 NIL_108    0.000
1589 C_3689 -3.586 2.835 -15.990 C.2 108 NIL_108    0.000
1590 C_3697 -2.171 1.823 -17.489 C.2 108 NIL_108    0.000
1591 C_3585 -2.461 2.881 -16.719 C.2 108 NIL_108    0.000
1592 C_1296 -1.544 3.980 -16.689 C.2 108 NIL_108    0.000
1593 O -1.018 4.271 -17.748 O.2 108 NIL_108    0.000
1594 H_3697 -1.271 1.814 -18.101 H 108 NIL_108    0.000
1595 H_3689 -3.905 3.675 -15.387 H 108 NIL_108    0.000
1596 H_3695 -2.680 -0.104 -18.121 H 108 NIL_108    0.000
1597 H_3691 -5.278 1.748 -15.404 H 108 NIL_108    0.000
1598 H_37051 -5.971 -0.219 -16.931 H 108 NIL_108    0.000
1599 H_37052 -4.663 -1.164 -17.617 H 108 NIL_108    0.000
1600 H_35121 -8.912 -3.133 -13.760 H 108 NIL_108    0.000
1601 H_35122 -7.439 -3.542 -14.635 H 108 NIL_108    0.000
1602 H_35123 -7.343 -2.702 -13.070 H 108 NIL_108    0.000
1603 H_2345 -5.357 -3.343 -14.208 H 108 NIL_108    0.000
1604 H_35101 -8.490 -4.816 -12.050 H 108 NIL_108    0.000
1605 H_35102 -8.277 -5.577 -13.598 H 108 NIL_108    0.000
1606 H_23481 -2.450 -5.403 -12.963 H 108 NIL_108    0.000
1607 H_23482 -3.992 -6.250 -13.055 H 108 NIL_108    0.000
1608 H_23461 -2.834 -2.666 -12.655 H 108 NIL_108    0.000
1609 H_23462 -4.485 -2.146 -12.262 H 108 NIL_108    0.000
1610 H_35081 -6.510 -6.263 -12.031 H 108 NIL_108    0.000
1611 H_35082 -5.921 -5.509 -13.494 H 108 NIL_108    0.000
1612 HH -5.831 -1.544 -15.126 H 108 NIL_108    0.000
1613 C_737 -5.389 -1.817 18.400 C.3 109 NIL_109    0.000
1614 C.fb -5.002 -2.954 17.430 C.3 109 NIL_109    0.000
1615 N -4.697 -0.601 17.943 N.am 109 NIL_109    0.000
1616 C_735 -4.506 -2.178 16.198 C.3 109 NIL_109    0.000
1617 NH -3.914 -3.779 17.969 N.am 109 NIL_109    0.000
1618 C_734 -3.832 -0.956 16.834 C.3 109 NIL_109    0.000
1619 C_739 -3.518 0.151 15.861 C.2 109 NIL_109    0.000
1620 O -2.902 -0.124 14.848 O.2 109 NIL_109    0.000
1621 H_734 -2.871 -1.259 17.260 H 109 NIL_109    0.000
1622 H_7351 -3.822 -2.756 15.572 H 109 NIL_109    0.000
1623 H_7352 -5.359 -1.860 15.592 H 109 NIL_109    0.000
1624 H.fb -5.865 -3.583 17.190 H 109 NIL_109    0.000
1625 H_7371 -6.467 -1.642 18.348 H 109 NIL_109    0.000
1626 H_7372 -5.107 -2.056 19.429 H 109 NIL_109    0.000
1627 HH -3.307 -3.341 18.645 H 109 NIL_109    0.000
1628 C_1417 1.092 5.759 -6.842 C.2 110 NIL_110    0.000
1629 C_1412 -0.063 5.925 -5.879 C.3 110 NIL_110    0.000
1630 O 2.212 6.130 -6.545 O.2 110 NIL_110    0.000
1631 N -1.137 4.970 -6.091 N.am 110 NIL_110    0.000
1632 C_1413 0.299 5.844 -4.388 C.3 110 NIL_110    0.000
1633 C_1415 -1.746 4.597 -4.806 C.3 110 NIL_110    0.000
1634 C_1414 -0.998 5.350 -3.674 C.3 110 NIL_110    0.000
1635 N -1.869 6.466 -3.137 N.am 110 NIL_110    0.000
1636 C_1426 -0.601 4.311 -2.607 C.2 110 NIL_110    0.000
1637 O 0.243 3.453 -2.794 O.2 110 NIL_110    0.000
1638 H_14151 -1.648 3.516 -4.683 H 110 NIL_110    0.000
1639 H_14152 -2.810 4.846 -4.809 H 110 NIL_110    0.000
1640 H_14131 1.113 5.124 -4.282 H 110 NIL_110    0.000
1641 H_14132 0.666 6.794 -3.996 H 110 NIL_110    0.000
1642 H_1412 -0.472 6.909 -6.110 H 110 NIL_110    0.000
1643 C_766 -0.714 -5.345 13.475 C.2 111 NIL_111    0.000
1644 C_767 -1.042 -5.862 12.310 C.2 111 NIL_111    0.000
1645 C_2285 -0.072 -6.061 14.644 C.3 111 NIL_111    0.000
1646 H_22851 -0.882 -6.616 15.110 H 111 NIL_111    0.000
1647 H_22852 0.624 -6.803 14.245 H 111 NIL_111    0.000
1648 H_767 -0.903 -6.888 11.986 H 111 NIL_111    0.000
1649 C_3011 5.056 -3.497 -0.318 C.3 112 NIL_112    0.000
1650 C_3010 3.962 -2.740 0.460 C.3 112 NIL_112    0.000
1651 C_3516 4.450 -4.591 -1.212 C.3 112 NIL_112    0.000
1652 H_35161 3.918 -5.330 -0.609 H 112 NIL_112    0.000
1653 H_35162 5.240 -5.100 -1.767 H 112 NIL_112    0.000
1654 H_35163 3.750 -4.158 -1.930 H 112 NIL_112    0.000
1655 H_30101 3.232 -2.350 -0.244 H 112 NIL_112    0.000
1656 H_30102 3.414 -3.462 1.072 H 112 NIL_112    0.000
1657 H_30111 5.756 -3.954 0.385 H 112 NIL_112    0.000
1658 H_30112 5.626 -2.810 -0.941 H 112 NIL_112    0.000
1659 C_2531 0.188 -2.371 4.810 C.3 113 NIL_113    0.000
1660 C_2530 -1.348 -2.536 4.729 C.3 113 NIL_113    0.000
1661 C_3500 0.723 -1.564 3.611 C.3 113 NIL_113    0.000
1662 H_35001 1.813 -1.519 3.635 H 113 NIL_113    0.000
1663 H_35002 0.330 -0.545 3.620 H 113 NIL_113    0.000
1664 H_35003 0.433 -2.036 2.673 H 113 NIL_113    0.000
1665 H_25301 -1.805 -1.569 4.954 H 113 NIL_113    0.000
1666 H_25302 -1.628 -2.750 3.700 H 113 NIL_113    0.000
1667 H_25311 0.682 -3.343 4.818 H 113 NIL_113    0.000
1668 H_25312 0.452 -1.867 5.742 H 113 NIL_113    0.000
1669 C_2526 -2.318 0.373 -2.563 C.3 114 NIL_114    0.000
1670 C_2527 -3.175 1.038 -1.457 C.3 114 NIL_114    0.000
1671 C_3504 -4.543 0.366 -1.236 C.3 114 NIL_114    0.000
1672 H_35041 -5.162 0.447 -2.132 H 114 NIL_114    0.000
1673 H_35042 -5.065 0.858 -0.413 H 114 NIL_114    0.000
1674 H_35043 -4.432 -0.688 -0.976 H 114 NIL_114    0.000
1675 H_25271 -3.330 2.089 -1.704 H 114 NIL_114    0.000
1676 H_25272 -2.630 1.010 -0.515 H 114 NIL_114    0.000
1677 H_25261 -2.794 0.575 -3.518 H 114 NIL_114    0.000
1678 H_25262 -1.335 0.853 -2.587 H 114 NIL_114    0.000
1679 C_188 -2.029 -9.247 17.660 C.3 115 NIL_115    0.000
1680 C_112 -2.394 -7.860 18.223 C.3 115 NIL_115    0.000
1681 H_1121 -3.479 -7.738 18.166 H 115 NIL_115    0.000
1682 H_1122 -2.098 -7.805 19.274 H 115 NIL_115    0.000
1683 H_1881 -2.576 -10.024 18.196 H 115 NIL_115    0.000
1684 H_1882 -0.961 -9.450 17.771 H 115 NIL_115    0.000
1685 H_1883 -2.287 -9.311 16.600 H 115 NIL_115    0.000
1686 C_1476 -2.015 7.702 -3.957 C.3 116 NIL_116    0.000
1687 C_1477 -3.197 7.643 -4.954 C.3 116 NIL_116    0.000
1688 C_3532 -3.475 9.022 -5.578 C.3 116 NIL_116    0.000
1689 H_35321 -2.616 9.371 -6.154 H 116 NIL_116    0.000
1690 H_35322 -3.698 9.757 -4.800 H 116 NIL_116    0.000
1691 H_35323 -4.336 8.964 -6.248 H 116 NIL_116    0.000
1692 H_14771 -4.099 7.303 -4.438 H 116 NIL_116    0.000
1693 H_14772 -2.992 6.934 -5.758 H 116 NIL_116    0.000
1694 H_14761 -1.098 7.953 -4.486 H 116 NIL_116    0.000
1695 H_14762 -2.188 8.542 -3.277 H 116 NIL_116    0.000
1696 C_267 1.061 3.445 16.505 C.3 117 NIL_117    0.000
1697 N 1.772 3.909 17.684 N.am 117 NIL_117    0.000
1698 C_268 0.241 4.647 16.023 C.3 117 NIL_117    0.000
1699 C_272 1.933 2.812 15.447 C.2 117 NIL_117    0.000
1700 C_270 1.100 5.100 18.220 C.3 117 NIL_117    0.000
1701 C.fa -0.138 5.351 17.338 C.3 117 NIL_117    0.000
1702 O 1.523 2.694 14.307 O.2 117 NIL_117    0.000
1703 NH -1.325 4.742 17.953 N.am 117 NIL_117    0.000
1704 H.fa -0.307 6.421 17.186 H 117 NIL_117    0.000
1705 H_2701 1.786 5.950 18.145 H 117 NIL_117    0.000
1706 H_2702 0.818 4.949 19.266 H 117 NIL_117    0.000
1707 H_2681 -0.626 4.342 15.432 H 117 NIL_117    0.000
1708 H_2682 0.865 5.309 15.416 H 117 NIL_117    0.000
1709 H_267 0.377 2.660 16.840 H 117 NIL_117    0.000
1710 HH -1.164 4.110 18.722 H 117 NIL_117    0.000
1711 C_245 4.142 2.328 12.424 C.2 118 NIL_118    0.000
1712 C_243 4.473 2.449 13.690 C.2 118 NIL_118    0.000
1713 C_2292 3.989 1.613 14.852 C.3 118 NIL_118    0.000
1714 H_22921 3.366 0.801 14.466 H 118 NIL_118    0.000
1715 H_22922 4.846 1.137 15.321 H 118 NIL_118    0.000
1716 H_245 3.461 1.595 12.007 H 118 NIL_118    0.000
1717 C_3518 9.650 -1.901 -5.616 C.3 119 NIL_119    0.000
1718 C_3009 8.398 -1.198 -5.060 C.3 119 NIL_119    0.000
1719 C_3008 7.703 -2.058 -3.980 C.3 119 NIL_119    0.000
1720 H_30081 7.330 -2.976 -4.427 H 119 NIL_119    0.000
1721 H_30082 8.465 -2.389 -3.268 H 119 NIL_119    0.000
1722 H_30091 8.690 -0.234 -4.635 H 119 NIL_119    0.000
1723 H_30092 7.712 -0.999 -5.884 H 119 NIL_119    0.000
1724 H_35181 10.100 -1.295 -6.404 H 119 NIL_119    0.000
1725 H_35182 9.393 -2.876 -6.035 H 119 NIL_119    0.000
1726 H_35183 10.394 -2.044 -4.829 H 119 NIL_119    0.000
1727 O 4.219 1.929 1.663 O.2 120 NIL_120    0.000
1728 C_2960 4.576 0.788 1.886 C.2 120 NIL_120    0.000
1729 C_2956 4.688 -0.288 0.797 C.3 120 NIL_120    0.000
1730 C_2955 6.121 -0.165 0.204 C.3 120 NIL_120    0.000
1731 C_2957 3.795 0.064 -0.434 C.3 120 NIL_120    0.000
1732 N 4.501 -1.680 1.356 N.am 120 NIL_120    0.000
1733 C_2954 5.958 0.076 -1.308 C.3 120 NIL_120    0.000
1734 N 4.589 -0.284 -1.616 N.am 120 NIL_120    0.000
1735 C_2959 7.023 -0.613 -2.129 C.2 120 NIL_120    0.000
1736 O 8.188 -0.520 -1.790 O.2 120 NIL_120    0.000
1737 H_2954 6.063 1.146 -1.511 H 120 NIL_120    0.000
1738 H_29571 2.821 -0.427 -0.412 H 120 NIL_120    0.000
1739 H_29572 3.611 1.140 -0.496 H 120 NIL_120    0.000
1740 H_29551 6.698 -1.072 0.398 H 120 NIL_120    0.000
1741 H_29552 6.678 0.666 0.644 H 120 NIL_120    0.000
1742 C_2521 -1.981 -1.356 -9.492 C.3 121 NIL_121    0.000
1743 C_2522 -2.078 0.077 -10.051 C.3 121 NIL_121    0.000
1744 C_3506 -1.659 0.113 -11.532 C.3 121 NIL_121    0.000
1745 H_35061 -2.361 -0.457 -12.143 H 121 NIL_121    0.000
1746 H_35062 -0.659 -0.309 -11.664 H 121 NIL_121    0.000
1747 H_35063 -1.654 1.139 -11.903 H 121 NIL_121    0.000
1748 H_25221 -1.427 0.738 -9.474 H 121 NIL_121    0.000
1749 H_25222 -3.100 0.449 -9.958 H 121 NIL_121    0.000
1750 H_25211 -2.527 -2.009 -10.167 H 121 NIL_121    0.000
1751 H_25212 -0.935 -1.676 -9.511 H 121 NIL_121    0.000
1752 C.fc 4.512 -3.245 17.518 C.3 122 NIL_122    0.000
1753 C_134 3.949 -3.488 16.105 C.3 122 NIL_122    0.000
1754 C_136 3.566 -4.065 18.411 C.3 122 NIL_122    0.000
1755 NH 4.463 -1.833 17.912 N.am 122 NIL_122    0.000
1756 C_133 2.441 -3.676 16.334 C.3 122 NIL_122    0.000
1757 N 2.314 -4.249 17.666 N.am 122 NIL_122    0.000
1758 C_138 1.718 -4.464 15.259 C.2 122 NIL_122    0.000
1759 O 2.069 -4.392 14.097 O.2 122 NIL_122    0.000
1760 H_133 1.963 -2.692 16.366 H 122 NIL_122    0.000
1761 H_1361 4.003 -5.049 18.602 H 122 NIL_122    0.000
1762 H_1362 3.378 -3.559 19.363 H 122 NIL_122    0.000
1763 H_1341 4.161 -2.665 15.417 H 122 NIL_122    0.000
1764 H_1342 4.382 -4.406 15.697 H 122 NIL_122    0.000
1765 H.fc 5.541 -3.607 17.602 H 122 NIL_122    0.000
1766 HH 3.711 -1.559 18.526 H 122 NIL_122    0.000
1767 C_1480 -4.663 5.643 5.374 C.3 123 NIL_123    0.000
1768 C_1481 -5.440 5.088 4.154 C.3 123 NIL_123    0.000
1769 C_3528 -6.501 4.035 4.528 C.3 123 NIL_123    0.000
1770 H_35281 -7.057 3.732 3.639 H 123 NIL_123    0.000
1771 H_35282 -7.210 4.443 5.250 H 123 NIL_123    0.000
1772 H_35283 -6.039 3.143 4.956 H 123 NIL_123    0.000
1773 H_14811 -4.759 4.664 3.418 H 123 NIL_123    0.000
1774 H_14812 -5.944 5.924 3.664 H 123 NIL_123    0.000
1775 H_14801 -4.015 6.449 5.036 H 123 NIL_123    0.000
1776 H_14802 -5.390 6.137 6.025 H 123 NIL_123    0.000
1777 C_3013 8.234 -0.648 6.889 C.3 124 NIL_124    0.000
1778 C_3012 7.565 0.426 5.997 C.3 124 NIL_124    0.000
1779 C_3514 9.591 -1.088 6.312 C.3 124 NIL_124    0.000
1780 H_35141 10.035 -1.862 6.943 H 124 NIL_124    0.000
1781 H_35142 10.282 -0.244 6.267 H 124 NIL_124    0.000
1782 H_35143 9.470 -1.494 5.305 H 124 NIL_124    0.000
1783 H_30121 8.194 1.322 5.996 H 124 NIL_124    0.000
1784 H_30122 7.535 0.068 4.967 H 124 NIL_124    0.000
1785 H_30131 7.586 -1.521 6.987 H 124 NIL_124    0.000
1786 H_30132 8.389 -0.250 7.895 H 124 NIL_124    0.000
1787 C_769 -5.848 5.294 18.100 C.3 125 NIL_125    0.000
1788 C_770 -7.068 5.519 17.187 C.3 125 NIL_125    0.000
1789 H_7701 -7.639 6.385 17.529 H 125 NIL_125    0.000
1790 H_7702 -7.731 4.652 17.195 H 125 NIL_125    0.000
1791 H_7703 -6.746 5.704 16.160 H 125 NIL_125    0.000
1792 H_7691 -5.268 6.221 18.137 H 125 NIL_125    0.000
1793 H_7692 -6.186 5.060 19.114 H 125 NIL_125    0.000
1794 C_660 7.277 1.690 18.101 C.3 126 NIL_126    0.000
1795 C_662 8.174 2.715 17.380 C.3 126 NIL_126    0.000
1796 H_6621 8.282 2.458 16.323 H 126 NIL_126    0.000
1797 H_6622 9.167 2.726 17.835 H 126 NIL_126    0.000
1798 H_6623 7.760 3.723 17.454 H 126 NIL_126    0.000
1799 H_6601 7.779 0.719 18.095 H 126 NIL_126    0.000
1800 H_6602 7.147 2.000 19.142 H 126 NIL_126    0.000
1801 C_1479 21.977 6.040 1.204 C.3 127 NIL_127    0.000
1802 C_1478 20.508 6.236 0.759 C.3 127 NIL_127    0.000
1803 C_3530 22.480 4.594 1.050 C.3 127 NIL_127    0.000
1804 H_35301 21.869 3.902 1.633 H 127 NIL_127    0.000
1805 H_35302 23.510 4.523 1.408 H 127 NIL_127    0.000
1806 H_35303 22.465 4.289 0.002 H 127 NIL_127    0.000
1807 H_14781 20.289 7.307 0.779 H 127 NIL_127    0.000
1808 H_14782 20.416 5.932 -0.281 H 127 NIL_127    0.000
1809 H_14791 22.103 6.348 2.244 H 127 NIL_127    0.000
1810 H_14792 22.612 6.697 0.605 H 127 NIL_127    0.000
1811 C_1303 18.828 6.184 -9.175 C.3 128 NIL_128    0.000
1812 C_1302 18.104 5.676 -10.426 C.3 128 NIL_128    0.000
1813 C_1304 19.394 4.912 -8.486 C.3 128 NIL_128    0.000
1814 N 18.863 4.514 -10.829 N.am 128 NIL_128    0.000
1815 C_1307 17.899 6.746 -11.471 C.2 128 NIL_128    0.000
1816 C_1305 19.253 3.824 -9.602 C.3 128 NIL_128    0.000
1817 N 20.806 5.193 -8.050 N.am 128 NIL_128    0.000
1818 C_1316 18.467 4.553 -7.312 C.2 128 NIL_128    0.000
1819 O 17.300 7.762 -11.164 O.2 128 NIL_128    0.000
1820 O 17.434 3.922 -7.437 O.2 128 NIL_128    0.000
1821 H_13051 20.169 3.265 -9.755 H 128 NIL_128    0.000
1822 H_13052 18.468 3.099 -9.376 H 128 NIL_128    0.000
1823 H_1302 17.105 5.327 -10.147 H 128 NIL_128    0.000
1824 H_13031 19.641 6.846 -9.491 H 128 NIL_128    0.000
1825 H_13032 18.165 6.759 -8.524 H 128 NIL_128    0.000
1826 O 16.190 -4.549 1.057 O.2 129 NIL_129    0.000
1827 C_2478 17.345 -4.807 1.339 C.2 129 NIL_129    0.000
1828 C_2474 18.461 -5.011 0.296 C.3 129 NIL_129    0.000
1829 C_2473 19.165 -3.638 0.129 C.3 129 NIL_129    0.000
1830 C_2475 17.834 -5.158 -1.139 C.3 129 NIL_129    0.000
1831 N 19.419 -6.076 0.775 N.am 129 NIL_129    0.000
1832 C_2472 18.157 -2.858 -0.727 C.3 129 NIL_129    0.000
1833 N 17.703 -3.808 -1.721 N.am 129 NIL_129    0.000
1834 C_2477 18.555 -1.502 -1.245 C.2 129 NIL_129    0.000
1835 O 19.349 -0.794 -0.655 O.2 129 NIL_129    0.000
1836 H_2472 17.289 -2.629 -0.107 H 129 NIL_129    0.000
1837 H_24751 18.464 -5.729 -1.820 H 129 NIL_129    0.000
1838 H_24752 16.853 -5.642 -1.092 H 129 NIL_129    0.000
1839 H_24731 20.114 -3.743 -0.404 H 129 NIL_129    0.000
1840 H_24732 19.345 -3.132 1.076 H 129 NIL_129    0.000
1841 O 22.976 -1.147 -2.874 O.2 130 NIL_130    0.000
1842 C_2958 24.165 -0.935 -2.722 C.2 130 NIL_130    0.000
1843 C_2946 25.226 -1.371 -3.754 C.3 130 NIL_130    0.000
1844 C_2945 24.824 -2.746 -4.381 C.3 130 NIL_130    0.000
1845 C_2947 25.076 -0.405 -4.960 C.3 130 NIL_130    0.000
1846 N 26.643 -1.330 -3.225 N.am 130 NIL_130    0.000
1847 C_2944 25.112 -2.608 -5.887 C.3 130 NIL_130    0.000
1848 N 24.928 -1.201 -6.186 N.am 130 NIL_130    0.000
1849 C_2949 24.345 -3.535 -6.809 C.2 130 NIL_130    0.000
1850 O 24.010 -4.642 -6.430 O.2 130 NIL_130    0.000
1851 H_2944 26.160 -2.834 -6.089 H 130 NIL_130    0.000
1852 H_29471 24.182 0.216 -4.853 H 130 NIL_130    0.000
1853 H_29472 25.942 0.257 -5.046 H 130 NIL_130    0.000
1854 H_29451 23.756 -2.944 -4.267 H 130 NIL_130    0.000
1855 H_29452 25.349 -3.590 -3.930 H 130 NIL_130    0.000
1856 C_2849 25.064 0.386 5.570 C.3 131 NIL_131    0.000
1857 C_2848 25.191 -1.065 4.997 C.3 131 NIL_131    0.000
1858 C_2850 25.024 1.285 4.306 C.3 131 NIL_131    0.000
1859 N 26.200 0.798 6.462 N.am 131 NIL_131    0.000
1860 C_2855 23.687 0.540 6.222 C.2 131 NIL_131    0.000
1861 C_2847 25.444 -0.898 3.488 C.3 131 NIL_131    0.000
1862 N 24.926 0.412 3.136 N.am 131 NIL_131    0.000
1863 O 22.668 0.089 5.736 O.2 131 NIL_131    0.000
1864 C_2852 24.911 -2.016 2.614 C.2 131 NIL_131    0.000
1865 O 24.860 -3.159 3.028 O.2 131 NIL_131    0.000
1866 H_2847 26.522 -0.869 3.307 H 131 NIL_131    0.000
1867 H_28501 24.173 1.972 4.330 H 131 NIL_131    0.000
1868 H_28502 25.944 1.871 4.220 H 131 NIL_131    0.000
1869 H_28481 24.276 -1.641 5.152 H 131 NIL_131    0.000
1870 H_28482 25.988 -1.648 5.453 H 131 NIL_131    0.000
1871 C_3654 24.614 3.410 -16.312 C.2 132 NIL_132    0.000
1872 C_3652 24.874 2.108 -16.178 C.2 132 NIL_132    0.000
1873 C_3656 23.853 3.852 -17.310 C.2 132 NIL_132    0.000
1874 C_3574 24.374 1.207 -17.034 C.2 132 NIL_132    0.000
1875 C_3658 23.390 2.973 -18.203 C.2 132 NIL_132    0.000
1876 C_3668 23.430 5.306 -17.365 C.3 132 NIL_132    0.000
1877 C_2831 24.546 -0.212 -16.890 C.2 132 NIL_132    0.000
1878 C_3660 23.645 1.671 -18.065 C.2 132 NIL_132    0.000
1879 NH 22.194 5.646 -16.623 N.am 132 NIL_132    0.000
1880 O 24.583 -0.839 -17.933 O.2 132 NIL_132    0.000
1881 C_1297 21.290 4.785 -16.080 C.2 132 NIL_132    0.000
1882 C_1292 20.084 5.437 -15.424 C.3 132 NIL_132    0.000
1883 O 21.417 3.575 -16.063 O.2 132 NIL_132    0.000
1884 N 18.836 4.642 -15.551 N.am 132 NIL_132    0.000
1885 C_1293 20.383 5.602 -13.920 C.3 132 NIL_132    0.000
1886 C_1295 18.243 4.486 -14.215 C.3 132 NIL_132    0.000
1887 C_1294 19.067 5.279 -13.174 C.3 132 NIL_132    0.000
1888 N 18.364 6.537 -12.735 N.am 132 NIL_132    0.000
1889 C_1306 19.368 4.271 -12.056 C.2 132 NIL_132    0.000
1890 C_3544 17.979 7.494 -13.819 C.3 132 NIL_132    0.000
1891 O 20.029 3.266 -12.254 O.2 132 NIL_132    0.000
1892 C_3546 18.921 8.701 -14.071 C.3 132 NIL_132    0.000
1893 C_3548 19.155 9.596 -12.838 C.3 132 NIL_132    0.000
1894 H_35481 19.638 9.038 -12.035 H 132 NIL_132    0.000
1895 H_35482 18.210 10.008 -12.472 H 132 NIL_132    0.000
1896 H_35483 19.808 10.433 -13.101 H 132 NIL_132    0.000
1897 H_35461 18.474 9.315 -14.857 H 132 NIL_132    0.000
1898 H_35462 19.881 8.372 -14.463 H 132 NIL_132    0.000
1899 H_35441 16.985 7.890 -13.591 H 132 NIL_132    0.000
1900 H_35442 17.867 6.964 -14.765 H 132 NIL_132    0.000
1901 H_12951 18.222 3.419 -13.976 H 132 NIL_132    0.000
1902 H_12952 17.219 4.863 -14.208 H 132 NIL_132    0.000
1903 H_12931 21.175 4.904 -13.635 H 132 NIL_132    0.000
1904 H_12932 20.771 6.590 -13.674 H 132 NIL_132    0.000
1905 H_1292 19.925 6.415 -15.889 H 132 NIL_132    0.000
1906 H_3660 23.202 0.990 -18.788 H 132 NIL_132    0.000
1907 H_36681 24.233 5.929 -16.964 H 132 NIL_132    0.000
1908 H_36682 23.287 5.605 -18.408 H 132 NIL_132    0.000
1909 H_3658 22.756 3.310 -19.020 H 132 NIL_132    0.000
1910 H_3652 25.508 1.828 -15.355 H 132 NIL_132    0.000
1911 H_3654 25.006 4.110 -15.577 H 132 NIL_132    0.000
1912 HH 21.994 6.632 -16.546 H 132 NIL_132    0.000
1913 N 16.327 -1.639 -5.566 N.am 133 NIL_133    0.000
1914 C_2462 17.661 -1.086 -5.682 C.3 133 NIL_133    0.000
1915 C_2465 16.071 -1.713 -4.116 C.3 133 NIL_133    0.000
1916 C_2463 18.454 -1.864 -4.620 C.3 133 NIL_133    0.000
1917 C_2467 18.273 -1.075 -7.064 C.2 133 NIL_133    0.000
1918 C_2464 17.447 -2.025 -3.437 C.3 133 NIL_133    0.000
1919 O 19.401 -0.648 -7.220 O.2 133 NIL_133    0.000
1920 N 17.864 -1.084 -2.339 N.am 133 NIL_133    0.000
1921 C_2476 17.388 -3.506 -3.004 C.2 133 NIL_133    0.000
1922 O 17.059 -4.388 -3.773 O.2 133 NIL_133    0.000
1923 H_24631 18.747 -2.835 -5.029 H 133 NIL_133    0.000
1924 H_24632 19.365 -1.335 -4.333 H 133 NIL_133    0.000
1925 H_24651 15.331 -2.484 -3.885 H 133 NIL_133    0.000
1926 H_24652 15.652 -0.758 -3.798 H 133 NIL_133    0.000
1927 H_2462 17.603 -0.031 -5.402 H 133 NIL_133    0.000
1928 O 15.816 -5.523 -16.346 O.2 134 NIL_134    0.000
1929 C_2349 16.654 -5.111 -15.567 C.2 134 NIL_134    0.000
1930 C_2378 18.040 -5.128 -15.919 C.2 134 NIL_134    0.000
1931 C_3627 18.457 -5.780 -17.012 C.2 134 NIL_134    0.000
1932 C_3635 18.951 -4.461 -15.194 C.2 134 NIL_134    0.000
1933 C_3629 19.740 -5.746 -17.375 C.2 134 NIL_134    0.000
1934 C_3633 20.229 -4.422 -15.566 C.2 134 NIL_134    0.000
1935 C_3631 20.640 -5.057 -16.667 C.2 134 NIL_134    0.000
1936 C_3643 22.078 -5.010 -17.155 C.3 134 NIL_134    0.000
1937 NH 23.074 -4.270 -16.373 N.am 134 NIL_134    0.000
1938 C_2832 23.157 -2.921 -16.327 C.2 134 NIL_134    0.000
1939 C_2827 24.407 -2.394 -15.634 C.3 134 NIL_134    0.000
1940 O 22.290 -2.206 -16.794 O.2 134 NIL_134    0.000
1941 N 24.607 -0.925 -15.717 N.am 134 NIL_134    0.000
1942 C_2828 24.409 -2.807 -14.144 C.3 134 NIL_134    0.000
1943 C_2830 24.664 -0.406 -14.339 C.3 134 NIL_134    0.000
1944 C_2829 24.888 -1.569 -13.343 C.3 134 NIL_134    0.000
1945 N 26.342 -1.692 -12.938 N.am 134 NIL_134    0.000
1946 C_2841 23.909 -1.342 -12.175 C.2 134 NIL_134    0.000
1947 C_3522 27.304 -2.140 -13.991 C.3 134 NIL_134    0.000
1948 O 22.703 -1.296 -12.340 O.2 134 NIL_134    0.000
1949 C_3524 28.484 -1.188 -14.316 C.3 134 NIL_134    0.000
1950 C_3526 28.058 0.147 -14.950 C.3 134 NIL_134    0.000
1951 H_35261 27.409 -0.021 -15.812 H 134 NIL_134    0.000
1952 H_35262 28.937 0.697 -15.291 H 134 NIL_134    0.000
1953 H_35263 27.540 0.772 -14.223 H 134 NIL_134    0.000
1954 H_35241 29.141 -1.702 -15.023 H 134 NIL_134    0.000
1955 H_35242 29.081 -0.989 -13.424 H 134 NIL_134    0.000
1956 H_35221 26.804 -2.331 -14.933 H 134 NIL_134    0.000
1957 H_35222 27.726 -3.094 -13.662 H 134 NIL_134    0.000
1958 H_28301 23.723 0.117 -14.146 H 134 NIL_134    0.000
1959 H_28302 25.481 0.289 -14.200 H 134 NIL_134    0.000
1960 H_28281 23.399 -3.103 -13.850 H 134 NIL_134    0.000
1961 H_28282 25.044 -3.680 -13.970 H 134 NIL_134    0.000
1962 H_2827 25.250 -2.875 -16.139 H 134 NIL_134    0.000
1963 H_36431 22.445 -6.036 -17.246 H 134 NIL_134    0.000
1964 H_36432 22.081 -4.580 -18.161 H 134 NIL_134    0.000
1965 H_3633 20.923 -3.847 -14.958 H 134 NIL_134    0.000
1966 H_3629 20.049 -6.277 -18.273 H 134 NIL_134    0.000
1967 H_3635 18.674 -3.902 -14.305 H 134 NIL_134    0.000
1968 H_3627 17.760 -6.341 -17.631 H 134 NIL_134    0.000
1969 HH 23.777 -4.814 -15.896 H 134 NIL_134    0.000
1970 C_2373 17.034 -5.852 6.056 C.2 135 NIL_135    0.000
1971 C_2367 17.755 -4.909 5.080 C.3 135 NIL_135    0.000
1972 O 16.641 -6.955 5.725 O.2 135 NIL_135    0.000
1973 C_2366 19.000 -5.662 4.529 C.3 135 NIL_135    0.000
1974 C_2368 16.862 -4.767 3.812 C.3 135 NIL_135    0.000
1975 N 18.101 -3.562 5.666 N.am 135 NIL_135    0.000
1976 C_2365 19.083 -5.251 3.048 C.3 135 NIL_135    0.000
1977 N 17.721 -4.937 2.631 N.am 135 NIL_135    0.000
1978 C_2370 19.755 -6.217 2.093 C.2 135 NIL_135    0.000
1979 O 20.517 -7.077 2.491 O.2 135 NIL_135    0.000
1980 H_2365 19.667 -4.336 2.969 H 135 NIL_135    0.000
1981 H_23681 16.091 -5.540 3.777 H 135 NIL_135    0.000
1982 H_23682 16.372 -3.790 3.783 H 135 NIL_135    0.000
1983 H_23661 18.861 -6.744 4.581 H 135 NIL_135    0.000
1984 H_23662 19.910 -5.428 5.084 H 135 NIL_135    0.000
1985 C_137 21.219 -4.888 18.121 C.2 136 NIL_136    0.000
1986 C_110 20.194 -5.352 17.075 C.3 136 NIL_136    0.000
1987 O 21.085 -5.091 19.314 O.2 136 NIL_136    0.000
1988 C_109 18.919 -4.490 17.246 C.3 136 NIL_136    0.000
1989 C_111 19.734 -6.788 17.477 C.3 136 NIL_136    0.000
1990 N 20.683 -5.262 15.652 N.am 136 NIL_136    0.000
1991 C_108 17.852 -5.407 17.873 C.3 136 NIL_136    0.000
1992 N 18.257 -6.765 17.466 N.3 136 NIL_136    0.000
1993 C_113 16.470 -4.961 17.439 C.2 136 NIL_136    0.000
1994 O 15.797 -5.567 16.626 O.2 136 NIL_136    0.000
1995 H_108 17.911 -5.322 18.962 H 136 NIL_136    0.000
1996 H_1111 20.124 -7.549 16.797 H 136 NIL_136    0.000
1997 H_1112 20.066 -7.046 18.485 H 136 NIL_136    0.000
1998 H_1091 18.569 -4.132 16.275 H 136 NIL_136    0.000
1999 H_1092 19.091 -3.607 17.870 H 136 NIL_136    0.000
2000 O 18.082 -2.065 7.345 O.2 137 NIL_137    0.000
2001 C_2372 17.843 -3.193 6.952 C.2 137 NIL_137    0.000
2002 C_2376 17.233 -4.192 7.921 C.3 137 NIL_137    0.000
2003 NH 16.805 -5.452 7.321 N.am 137 NIL_137    0.000
2004 C_2388 18.210 -4.425 9.100 C.3 137 NIL_137    0.000
2005 C_2396 17.540 -5.088 10.325 C.3 137 NIL_137    0.000
2006 N 18.427 -4.952 11.485 N.3 137 NIL_137    0.000
2007 N 18.309 -3.863 12.291 N.2 137 NIL_137    0.000
2008 N 18.882 -4.124 13.417 N.2 137 NIL_137    0.000
2009 H_23961 16.584 -4.601 10.539 H 137 NIL_137    0.000
2010 H_23962 17.351 -6.147 10.121 H 137 NIL_137    0.000
2011 H_23881 18.618 -3.463 9.420 H 137 NIL_137    0.000
2012 H_23882 19.054 -5.034 8.765 H 137 NIL_137    0.000
2013 H_2376 16.333 -3.704 8.305 H 137 NIL_137    0.000
2014 HH 16.307 -6.087 7.929 H 137 NIL_137    0.000
2015 C_1312 18.125 5.474 3.662 C.3 138 NIL_138    0.000
2016 N 17.878 4.084 3.313 N.am 138 NIL_138    0.000
2017 C_1313 18.316 5.507 5.187 C.3 138 NIL_138    0.000
2018 C_1317 19.248 6.101 2.864 C.2 138 NIL_138    0.000
2019 C_1315 17.460 3.334 4.504 C.3 138 NIL_138    0.000
2020 C_1314 17.501 4.290 5.725 C.3 138 NIL_138    0.000
2021 O 19.879 7.038 3.317 O.2 138 NIL_138    0.000
2022 N 16.101 4.638 6.177 N.am 138 NIL_138    0.000
2023 C_1320 18.333 3.578 6.802 C.2 138 NIL_138    0.000
2024 O 19.537 3.421 6.725 O.2 138 NIL_138    0.000
2025 H_13151 18.159 2.503 4.639 H 138 NIL_138    0.000
2026 H_13152 16.459 2.921 4.360 H 138 NIL_138    0.000
2027 H_13131 19.383 5.397 5.387 H 138 NIL_138    0.000
2028 H_13132 18.016 6.458 5.632 H 138 NIL_138    0.000
2029 H_1312 17.230 6.037 3.387 H 138 NIL_138    0.000
2030 C_3520 23.452 -5.728 -10.863 C.3 139 NIL_139    0.000
2031 C_3007 24.262 -4.755 -9.988 C.3 139 NIL_139    0.000
2032 C_3006 23.345 -3.963 -9.030 C.3 139 NIL_139    0.000
2033 H_30061 22.609 -3.421 -9.619 H 139 NIL_139    0.000
2034 H_30062 22.759 -4.689 -8.460 H 139 NIL_139    0.000
2035 H_30071 25.000 -5.317 -9.410 H 139 NIL_139    0.000
2036 H_30072 24.797 -4.074 -10.652 H 139 NIL_139    0.000
2037 H_35201 22.748 -5.183 -11.497 H 139 NIL_139    0.000
2038 H_35202 22.892 -6.435 -10.246 H 139 NIL_139    0.000
2039 H_35203 24.124 -6.295 -11.511 H 139 NIL_139    0.000
2040 C_2878 25.173 3.175 10.249 C.3 140 NIL_140    0.000
2041 N 24.716 3.257 11.642 N.3 140 NIL_140    0.000
2042 C_2870 24.471 2.015 9.505 C.3 140 NIL_140    0.000
2043 N 25.532 3.887 12.531 N.2 140 NIL_140    0.000
2044 C_2858 24.658 2.034 7.969 C.3 140 NIL_140    0.000
2045 N 25.303 3.430 13.714 N.2 140 NIL_140    0.000
2046 C_2854 26.062 1.651 7.517 C.2 140 NIL_140    0.000
2047 NH 23.596 1.229 7.370 N.am 140 NIL_140    0.000
2048 O 27.039 2.097 8.088 O.2 140 NIL_140    0.000
2049 H_2858 24.502 3.056 7.612 H 140 NIL_140    0.000
2050 H_28701 24.808 1.054 9.904 H 140 NIL_140    0.000
2051 H_28702 23.400 2.092 9.707 H 140 NIL_140    0.000
2052 H_28781 26.256 3.031 10.236 H 140 NIL_140    0.000
2053 H_28782 24.939 4.120 9.749 H 140 NIL_140    0.000
2054 HH 22.695 1.281 7.821 H 140 NIL_140    0.000
2055 O 26.253 -1.144 16.745 O.2 141 NIL_141    0.000
2056 C_262 25.339 -0.889 17.507 C.2 141 NIL_141    0.000
2057 C_257 25.086 0.508 18.058 C.3 141 NIL_141    0.000
2058 N 25.946 1.552 17.461 N.3 141 NIL_141    0.000
2059 C_258 23.624 0.970 17.838 C.3 141 NIL_141    0.000
2060 C_260 25.171 2.798 17.347 C.3 141 NIL_141    0.000
2061 C_259 23.672 2.401 17.245 C.3 141 NIL_141    0.000
2062 N 23.170 2.382 15.824 N.am 141 NIL_141    0.000
2063 C_271 22.893 3.346 18.175 C.2 141 NIL_141    0.000
2064 O 23.266 3.619 19.301 O.2 141 NIL_141    0.000
2065 H_2601 25.493 3.387 16.485 H 141 NIL_141    0.000
2066 H_2602 25.358 3.388 18.248 H 141 NIL_141    0.000
2067 H_2581 23.083 0.297 17.168 H 141 NIL_141    0.000
2068 H_2582 23.094 0.948 18.793 H 141 NIL_141    0.000
2069 H_257 25.264 0.465 19.137 H 141 NIL_141    0.000
2070 C_2528 19.920 -7.038 -0.232 C.3 142 NIL_142    0.000
2071 C_2529 18.917 -8.182 -0.523 C.3 142 NIL_142    0.000
2072 C_3502 19.127 -9.395 0.406 C.3 142 NIL_142    0.000
2073 H_35021 20.135 -9.800 0.292 H 142 NIL_142    0.000
2074 H_35022 18.414 -10.183 0.152 H 142 NIL_142    0.000
2075 H_35023 18.977 -9.126 1.453 H 142 NIL_142    0.000
2076 H_25291 19.034 -8.508 -1.560 H 142 NIL_142    0.000
2077 H_25292 17.890 -7.826 -0.419 H 142 NIL_142    0.000
2078 H_25281 20.862 -7.473 0.110 H 142 NIL_142    0.000
2079 H_25282 20.166 -6.504 -1.150 H 142 NIL_142    0.000
2080 C_726 16.675 2.584 18.303 C.3 143 NIL_143    0.000
2081 C_725 16.348 4.099 18.239 C.3 143 NIL_143    0.000
2082 C_727 15.566 1.827 17.528 C.3 143 NIL_143    0.000
2083 N 15.020 4.203 17.601 N.3 143 NIL_143    0.000
2084 C_729 17.412 4.910 17.510 C.2 143 NIL_143    0.000
2085 C_728 14.409 2.866 17.475 C.3 143 NIL_143    0.000
2086 N 16.079 1.422 16.166 N.am 143 NIL_143    0.000
2087 C_738 15.082 0.649 18.396 C.2 143 NIL_143    0.000
2088 O 17.153 5.645 16.575 O.2 143 NIL_143    0.000
2089 O 14.483 0.809 19.444 O.2 143 NIL_143    0.000
2090 H_7281 13.834 2.779 16.549 H 143 NIL_143    0.000
2091 H_7282 13.725 2.736 18.317 H 143 NIL_143    0.000
2092 H_725 16.302 4.484 19.263 H 143 NIL_143    0.000
2093 H_7261 17.664 2.343 17.907 H 143 NIL_143    0.000
2094 H_7262 16.680 2.289 19.356 H 143 NIL_143    0.000
2095 N 24.420 -1.200 -10.934 N.am 144 NIL_144    0.000
2096 C_2935 25.822 -1.141 -10.587 C.3 144 NIL_144    0.000
2097 C_2938 23.668 -1.088 -9.683 C.3 144 NIL_144    0.000
2098 C_2936 25.942 -1.877 -9.244 C.3 144 NIL_144    0.000
2099 C_2939 26.783 -1.615 -11.650 C.2 144 NIL_144    0.000
2100 C_2937 24.552 -1.730 -8.561 C.3 144 NIL_144    0.000
2101 O 27.923 -1.909 -11.339 O.2 144 NIL_144    0.000
2102 N 24.065 -3.074 -8.065 N.am 144 NIL_144    0.000
2103 C_2948 24.770 -0.710 -7.430 C.2 144 NIL_144    0.000
2104 O 24.849 0.488 -7.616 O.2 144 NIL_144    0.000
2105 H_29361 26.198 -2.925 -9.404 H 144 NIL_144    0.000
2106 H_29362 26.750 -1.449 -8.645 H 144 NIL_144    0.000
2107 H_29381 22.673 -1.521 -9.764 H 144 NIL_144    0.000
2108 H_29382 23.516 -0.024 -9.507 H 144 NIL_144    0.000
2109 H_2935 26.058 -0.085 -10.428 H 144 NIL_144    0.000
2110 N 16.153 1.752 11.660 N.3 145 NIL_145    0.000
2111 C_1343 16.489 1.742 10.238 C.3 145 NIL_145    0.000
2112 N 14.870 1.626 12.087 N.2 145 NIL_145    0.000
2113 C_1335 15.854 2.949 9.516 C.3 145 NIL_145    0.000
2114 N 14.851 1.883 13.350 N.2 145 NIL_145    0.000
2115 C_1323 16.252 2.987 8.022 C.3 145 NIL_145    0.000
2116 C_1319 15.487 4.041 7.241 C.2 145 NIL_145    0.000
2117 NH 17.698 3.090 7.879 N.am 145 NIL_145    0.000
2118 O 14.353 4.340 7.571 O.2 145 NIL_145    0.000
2119 H_1323 15.963 2.035 7.566 H 145 NIL_145    0.000
2120 H_13351 14.768 2.872 9.603 H 145 NIL_145    0.000
2121 H_13352 16.161 3.880 10.001 H 145 NIL_145    0.000
2122 H_13431 16.126 0.814 9.788 H 145 NIL_145    0.000
2123 H_13432 17.577 1.775 10.138 H 145 NIL_145    0.000
2124 HH 18.250 2.650 8.600 H 145 NIL_145    0.000
2125 C_2299 16.389 2.532 15.220 C.3 146 NIL_146    0.000
2126 C_309 16.010 2.238 13.787 C.2 146 NIL_146    0.000
2127 C_310 16.806 2.186 12.740 C.2 146 NIL_146    0.000
2128 H_310 17.873 2.384 12.711 H 146 NIL_146    0.000
2129 H_22991 17.464 2.723 15.274 H 146 NIL_146    0.000
2130 H_22992 15.885 3.455 15.486 H 146 NIL_146    0.000
2131 C_1471 21.843 5.193 -9.117 C.3 147 NIL_147    0.000
2132 C_1472 22.977 4.168 -8.898 C.3 147 NIL_147    0.000
2133 C_3542 22.502 2.708 -8.963 C.3 147 NIL_147    0.000
2134 H_35421 21.687 2.520 -8.256 H 147 NIL_147    0.000
2135 H_35422 23.324 2.052 -8.700 H 147 NIL_147    0.000
2136 H_35423 22.178 2.448 -9.973 H 147 NIL_147    0.000
2137 H_14721 23.458 4.341 -7.933 H 147 NIL_147    0.000
2138 H_14722 23.742 4.324 -9.661 H 147 NIL_147    0.000
2139 H_14711 22.289 6.192 -9.140 H 147 NIL_147    0.000
2140 H_14712 21.405 5.037 -10.102 H 147 NIL_147    0.000
2141 C_2356 15.150 -2.251 -8.902 C.3 148 NIL_148    0.000
2142 C_2355 14.864 -3.691 -9.360 C.3 148 NIL_148    0.000
2143 C_2357 16.357 -2.438 -7.919 C.3 148 NIL_148    0.000
2144 N 16.188 -4.258 -9.514 N.am 148 NIL_148    0.000
2145 C_2360 13.926 -3.855 -10.533 C.2 148 NIL_148    0.000
2146 C_2358 16.869 -3.873 -8.269 C.3 148 NIL_148    0.000
2147 N 17.501 -1.487 -8.105 N.am 148 NIL_148    0.000
2148 C_2369 15.767 -2.447 -6.497 C.2 148 NIL_148    0.000
2149 O 12.756 -3.567 -10.388 O.2 148 NIL_148    0.000
2150 O 14.813 -3.147 -6.204 O.2 148 NIL_148    0.000
2151 H_23581 17.956 -3.902 -8.382 H 148 NIL_148    0.000
2152 H_23582 16.590 -4.588 -7.487 H 148 NIL_148    0.000
2153 H_2355 14.377 -4.234 -8.542 H 148 NIL_148    0.000
2154 H_23561 15.400 -1.634 -9.764 H 148 NIL_148    0.000
2155 H_23562 14.279 -1.803 -8.421 H 148 NIL_148    0.000
2156 O 17.688 2.434 1.830 O.2 149 NIL_149    0.000
2157 C_1428 18.010 3.583 2.067 C.2 149 NIL_149    0.000
2158 C_1424 18.589 4.541 1.012 C.3 149 NIL_149    0.000
2159 C_1423 17.400 5.288 0.342 C.3 149 NIL_149    0.000
2160 C_1425 19.203 3.734 -0.173 C.3 149 NIL_149    0.000
2161 N 19.507 5.567 1.635 N.am 149 NIL_149    0.000
2162 C_1422 17.536 5.092 -1.180 C.3 149 NIL_149    0.000
2163 N 18.783 4.392 -1.412 N.am 149 NIL_149    0.000
2164 C_1427 17.376 6.349 -2.006 C.2 149 NIL_149    0.000
2165 O 16.591 7.213 -1.661 O.2 149 NIL_149    0.000
2166 H_1422 16.735 4.427 -1.514 H 149 NIL_149    0.000
2167 H_14251 20.289 3.680 -0.112 H 149 NIL_149    0.000
2168 H_14252 18.820 2.714 -0.215 H 149 NIL_149    0.000
2169 H_14231 17.403 6.348 0.612 H 149 NIL_149    0.000
2170 H_14232 16.438 4.881 0.667 H 149 NIL_149    0.000
2171 N 14.430 -4.426 -11.665 N.am 150 NIL_150    0.000
2172 C_2347 15.905 -4.316 -11.977 C.3 150 NIL_150    0.000
2173 C_3508 13.587 -5.302 -12.545 C.3 150 NIL_150    0.000
2174 C_2346 16.112 -2.954 -12.693 C.3 150 NIL_150    0.000
2175 C_2348 16.474 -5.262 -13.080 C.3 150 NIL_150    0.000
2176 C_2359 16.793 -4.402 -10.720 C.2 150 NIL_150    0.000
2177 C_3510 12.158 -4.832 -12.927 C.3 150 NIL_150    0.000
2178 C_2345 15.724 -3.254 -14.153 C.3 150 NIL_150    0.000
2179 N 16.264 -4.601 -14.379 N.am 150 NIL_150    0.000
2180 O 17.999 -4.558 -10.784 O.2 150 NIL_150    0.000
2181 C_3512 12.120 -3.465 -13.639 C.3 150 NIL_150    0.000
2182 C_2350 16.102 -2.172 -15.163 C.2 150 NIL_150    0.000
2183 O 17.227 -2.016 -15.597 O.2 150 NIL_150    0.000
2184 NH 15.065 -1.396 -15.564 N.am 150 NIL_150    0.000
2185 C_3705 15.061 -0.539 -16.763 C.3 150 NIL_150    0.000
2186 C_3693 15.945 0.692 -16.747 C.2 150 NIL_150    0.000
2187 C_3691 15.629 1.756 -16.006 C.2 150 NIL_150    0.000
2188 C_3695 17.047 0.745 -17.499 C.2 150 NIL_150    0.000
2189 C_3689 16.414 2.835 -15.990 C.2 150 NIL_150    0.000
2190 C_3697 17.829 1.823 -17.489 C.2 150 NIL_150    0.000
2191 C_3585 17.539 2.881 -16.719 C.2 150 NIL_150    0.000
2192 C_1296 18.456 3.980 -16.689 C.2 150 NIL_150    0.000
2193 O 18.982 4.271 -17.748 O.2 150 NIL_150    0.000
2194 H_3697 18.729 1.814 -18.101 H 150 NIL_150    0.000
2195 H_3689 16.095 3.675 -15.387 H 150 NIL_150    0.000
2196 H_3695 17.320 -0.104 -18.121 H 150 NIL_150    0.000
2197 H_3691 14.722 1.748 -15.404 H 150 NIL_150    0.000
2198 H_37051 14.029 -0.219 -16.931 H 150 NIL_150    0.000
2199 H_37052 15.337 -1.164 -17.617 H 150 NIL_150    0.000
2200 H_35121 11.088 -3.133 -13.760 H 150 NIL_150    0.000
2201 H_35122 12.561 -3.542 -14.635 H 150 NIL_150    0.000
2202 H_35123 12.657 -2.702 -13.070 H 150 NIL_150    0.000
2203 H_2345 14.643 -3.343 -14.208 H 150 NIL_150    0.000
2204 H_35101 11.510 -4.816 -12.050 H 150 NIL_150    0.000
2205 H_35102 11.723 -5.577 -13.598 H 150 NIL_150    0.000
2206 H_23481 17.550 -5.403 -12.963 H 150 NIL_150    0.000
2207 H_23482 16.008 -6.250 -13.055 H 150 NIL_150    0.000
2208 H_23461 17.166 -2.666 -12.655 H 150 NIL_150    0.000
2209 H_23462 15.515 -2.146 -12.262 H 150 NIL_150    0.000
2210 H_35081 13.490 -6.263 -12.031 H 150 NIL_150    0.000
2211 H_35082 14.079 -5.509 -13.494 H 150 NIL_150    0.000
2212 HH 14.169 -1.544 -15.126 H 150 NIL_150    0.000
2213 C_737 14.611 -1.817 18.400 C.3 151 NIL_151    0.000
2214 C.fb 14.998 -2.954 17.430 C.3 151 NIL_151    0.000
2215 N 15.303 -0.601 17.943 N.am 151 NIL_151    0.000
2216 C_735 15.494 -2.178 16.198 C.3 151 NIL_151    0.000
2217 NH 16.086 -3.779 17.969 N.am 151 NIL_151    0.000
2218 C_734 16.168 -0.956 16.834 C.3 151 NIL_151    0.000
2219 C_739 16.482 0.151 15.861 C.2 151 NIL_151    0.000
2220 O 17.098 -0.124 14.848 O.2 151 NIL_151    0.000
2221 H_734 17.129 -1.259 17.260 H 151 NIL_151    0.000
2222 H_7351 16.178 -2.756 15.572 H 151 NIL_151    0.000
2223 H_7352 14.641 -1.860 15.592 H 151 NIL_151    0.000
2224 H.fb 14.135 -3.583 17.190 H 151 NIL_151    0.000
2225 H_7371 13.533 -1.642 18.348 H 151 NIL_151    0.000
2226 H_7372 14.893 -2.056 19.429 H 151 NIL_151    0.000
2227 HH 16.693 -3.341 18.645 H 151 NIL_151    0.000
2228 C_1417 21.092 5.759 -6.842 C.2 152 NIL_152    0.000
2229 C_1412 19.937 5.925 -5.879 C.3 152 NIL_152    0.000
2230 O 22.212 6.130 -6.545 O.2 152 NIL_152    0.000
2231 N 18.863 4.970 -6.091 N.am 152 NIL_152    0.000
2232 C_1413 20.299 5.844 -4.388 C.3 152 NIL_152    0.000
2233 C_1415 18.254 4.597 -4.806 C.3 152 NIL_152    0.000
2234 C_1414 19.002 5.350 -3.674 C.3 152 NIL_152    0.000
2235 N 18.131 6.466 -3.137 N.am 152 NIL_152    0.000
2236 C_1426 19.399 4.311 -2.607 C.2 152 NIL_152    0.000
2237 O 20.243 3.453 -2.794 O.2 152 NIL_152    0.000
2238 H_14151 18.352 3.516 -4.683 H 152 NIL_152    0.000
2239 H_14152 17.190 4.846 -4.809 H 152 NIL_152    0.000
2240 H_14131 21.113 5.124 -4.282 H 152 NIL_152    0.000
2241 H_14132 20.666 6.794 -3.996 H 152 NIL_152    0.000
2242 H_1412 19.528 6.909 -6.110 H 152 NIL_152    0.000
2243 C_766 19.286 -5.345 13.475 C.2 153 NIL_153    0.000
2244 C_767 18.958 -5.862 12.310 C.2 153 NIL_153    0.000
2245 C_2285 19.928 -6.061 14.644 C.3 153 NIL_153    0.000
2246 H_22851 19.118 -6.616 15.110 H 153 NIL_153    0.000
2247 H_22852 20.624 -6.803 14.245 H 153 NIL_153    0.000
2248 H_767 19.097 -6.888 11.986 H 153 NIL_153    0.000
2249 C_3011 25.056 -3.497 -0.318 C.3 154 NIL_154    0.000
2250 C_3010 23.962 -2.740 0.460 C.3 154 NIL_154    0.000
2251 C_3516 24.450 -4.591 -1.212 C.3 154 NIL_154    0.000
2252 H_35161 23.918 -5.330 -0.609 H 154 NIL_154    0.000
2253 H_35162 25.240 -5.100 -1.767 H 154 NIL_154    0.000
2254 H_35163 23.750 -4.158 -1.930 H 154 NIL_154    0.000
2255 H_30101 23.232 -2.350 -0.244 H 154 NIL_154    0.000
2256 H_30102 23.414 -3.462 1.072 H 154 NIL_154    0.000
2257 H_30111 25.756 -3.954 0.385 H 154 NIL_154    0.000
2258 H_30112 25.626 -2.810 -0.941 H 154 NIL_154    0.000
2259 C_2531 20.188 -2.371 4.810 C.3 155 NIL_155    0.000
2260 C_2530 18.652 -2.536 4.729 C.3 155 NIL_155    0.000
2261 C_3500 20.723 -1.564 3.611 C.3 155 NIL_155    0.000
2262 H_35001 21.813 -1.519 3.635 H 155 NIL_155    0.000
2263 H_35002 20.330 -0.545 3.620 H 155 NIL_155    0.000
2264 H_35003 20.433 -2.036 2.673 H 155 NIL_155    0.000
2265 H_25301 18.195 -1.569 4.954 H 155 NIL_155    0.000
2266 H_25302 18.372 -2.750 3.700 H 155 NIL_155    0.000
2267 H_25311 20.682 -3.343 4.818 H 155 NIL_155    0.000
2268 H_25312 20.452 -1.867 5.742 H 155 NIL_155    0.000
2269 C_2526 17.682 0.373 -2.563 C.3 156 NIL_156    0.000
2270 C_2527 16.825 1.038 -1.457 C.3 156 NIL_156    0.000
2271 C_3504 15.457 0.366 -1.236 C.3 156 NIL_156    0.000
2272 H_35041 14.838 0.447 -2.132 H 156 NIL_156    0.000
2273 H_35042 14.935 0.858 -0.413 H 156 NIL_156    0.000
2274 H_35043 15.568 -0.688 -0.976 H 156 NIL_156    0.000
2275 H_25271 16.670 2.089 -1.704 H 156 NIL_156    0.000
2276 H_25272 17.370 1.010 -0.515 H 156 NIL_156    0.000
2277 H_25261 17.206 0.575 -3.518 H 156 NIL_156    0.000
2278 H_25262 18.665 0.853 -2.587 H 156 NIL_156    0.000
2279 C_188 17.971 -9.247 17.660 C.3 157 NIL_157    0.000
2280 C_112 17.606 -7.860 18.223 C.3 157 NIL_157    0.000
2281 H_1121 16.521 -7.738 18.166 H 157 NIL_157    0.000
2282 H_1122 17.902 -7.805 19.274 H 157 NIL_157    0.000
2283 H_1881 17.424 -10.024 18.196 H 157 NIL_157    0.000
2284 H_1882 19.039 -9.450 17.771 H 157 NIL_157    0.000
2285 H_1883 17.713 -9.311 16.600 H 157 NIL_157    0.000
2286 C_1476 17.985 7.702 -3.957 C.3 158 NIL_158    0.000
2287 C_1477 16.803 7.643 -4.954 C.3 158 NIL_158    0.000
2288 C_3532 16.525 9.022 -5.578 C.3 158 NIL_158    0.000
2289 H_35321 17.384 9.371 -6.154 H 158 NIL_158    0.000
2290 H_35322 16.302 9.757 -4.800 H 158 NIL_158    0.000
2291 H_35323 15.664 8.964 -6.248 H 158 NIL_158    0.000
2292 H_14771 15.901 7.303 -4.438 H 158 NIL_158    0.000
2293 H_14772 17.008 6.934 -5.758 H 158 NIL_158    0.000
2294 H_14761 18.902 7.953 -4.486 H 158 NIL_158    0.000
2295 H_14762 17.812 8.542 -3.277 H 158 NIL_158    0.000
2296 C_267 21.061 3.445 16.505 C.3 159 NIL_159    0.000
2297 N 21.772 3.909 17.684 N.am 159 NIL_159    0.000
2298 C_268 20.241 4.647 16.023 C.3 159 NIL_159    0.000
2299 C_272 21.933 2.812 15.447 C.2 159 NIL_159    0.000
2300 C_270 21.100 5.100 18.220 C.3 159 NIL_159    0.000
2301 C.fa 19.862 5.351 17.338 C.3 159 NIL_159    0.000
2302 O 21.523 2.694 14.307 O.2 159 NIL_159    0.000
2303 NH 18.675 4.742 17.953 N.am 159 NIL_159    0.000
2304 H.fa 19.693 6.421 17.186 H 159 NIL_159    0.000
2305 H_2701 21.786 5.950 18.145 H 159 NIL_159    0.000
2306 H_2702 20.818 4.949 19.266 H 159 NIL_159    0.000
2307 H_2681 19.374 4.342 15.432 H 159 NIL_159    0.000
2308 H_2682 20.865 5.309 15.416 H 159 NIL_159    0.000
2309 H_267 20.377 2.660 16.840 H 159 NIL_159    0.000
2310 HH 18.836 4.110 18.722 H 159 NIL_159    0.000
2311 C_245 24.142 2.328 12.424 C.2 160 NIL_160    0.000
2312 C_243 24.473 2.449 13.690 C.2 160 NIL_160    0.000
2313 C_2292 23.989 1.613 14.852 C.3 160 NIL_160    0.000
2314 H_22921 23.366 0.801 14.466 H 160 NIL_160    0.000
2315 H_22922 24.846 1.137 15.321 H 160 NIL_160    0.000
2316 H_245 23.461 1.595 12.007 H 160 NIL_160    0.000
2317 C_3518 29.650 -1.901 -5.616 C.3 161 NIL_161    0.000
2318 C_3009 28.398 -1.198 -5.060 C.3 161 NIL_161    0.000
2319 C_3008 27.703 -2.058 -3.980 C.3 161 NIL_161    0.000
2320 H_30081 27.330 -2.976 -4.427 H 161 NIL_161    0.000
2321 H_30082 28.465 -2.389 -3.268 H 161 NIL_161    0.000
2322 H_30091 28.690 -0.234 -4.635 H 161 NIL_161    0.000
2323 H_30092 27.712 -0.999 -5.884 H 161 NIL_161    0.000
2324 H_35181 30.100 -1.295 -6.404 H 161 NIL_161    0.000
2325 H_35182 29.393 -2.876 -6.035 H 161 NIL_161    0.000
2326 H_35183 30.394 -2.044 -4.829 H 161 NIL_161    0.000
2327 O 24.219 1.929 1.663 O.2 162 NIL_162    0.000
2328 C_2960 24.576 0.788 1.886 C.2 162 NIL_162    0.000
2329 C_2956 24.688 -0.288 0.797 C.3 162 NIL_162    0.000
2330 C_2955 26.121 -0.165 0.204 C.3 162 NIL_162    0.000
2331 C_2957 23.795 0.064 -0.434 C.3 162 NIL_162    0.000
2332 N 24.501 -1.680 1.356 N.am 162 NIL_162    0.000
2333 C_2954 25.958 0.076 -1.308 C.3 162 NIL_162    0.000
2334 N 24.589 -0.284 -1.616 N.am 162 NIL_162    0.000
2335 C_2959 27.023 -0.613 -2.129 C.2 162 NIL_162    0.000
2336 O 28.188 -0.520 -1.790 O.2 162 NIL_162    0.000
2337 H_2954 26.063 1.146 -1.511 H 162 NIL_162    0.000
2338 H_29571 22.821 -0.427 -0.412 H 162 NIL_162    0.000
2339 H_29572 23.611 1.140 -0.496 H 162 NIL_162    0.000
2340 H_29551 26.698 -1.072 0.398 H 162 NIL_162    0.000
2341 H_29552 26.678 0.666 0.644 H 162 NIL_162    0.000
2342 C_2521 18.019 -1.356 -9.492 C.3 163 NIL_163    0.000
2343 C_2522 17.922 0.077 -10.051 C.3 163 NIL_163    0.000
2344 C_3506 18.341 0.113 -11.532 C.3 163 NIL_163    0.000
2345 H_35061 17.639 -0.457 -12.143 H 163 NIL_163    0.000
2346 H_35062 19.341 -0.309 -11.664 H 163 NIL_163    0.000
2347 H_35063 18.346 1.139 -11.903 H 163 NIL_163    0.000
2348 H_25221 18.573 0.738 -9.474 H 163 NIL_163    0.000
2349 H_25222 16.900 0.449 -9.958 H 163 NIL_163    0.000
2350 H_25211 17.473 -2.009 -10.167 H 163 NIL_163    0.000
2351 H_25212 19.065 -1.676 -9.511 H 163 NIL_163    0.000
2352 C.fc 24.512 -3.245 17.518 C.3 164 NIL_164    0.000
2353 C_134 23.949 -3.488 16.105 C.3 164 NIL_164    0.000
2354 C_136 23.566 -4.065 18.411 C.3 164 NIL_164    0.000
2355 NH 24.463 -1.833 17.912 N.am 164 NIL_164    0.000
2356 C_133 22.441 -3.676 16.334 C.3 164 NIL_164    0.000
2357 N 22.314 -4.249 17.666 N.am 164 NIL_164    0.000
2358 C_138 21.718 -4.464 15.259 C.2 164 NIL_164    0.000
2359 O 22.069 -4.392 14.097 O.2 164 NIL_164    0.000
2360 H_133 21.963 -2.692 16.366 H 164 NIL_164    0.000
2361 H_1361 24.003 -5.049 18.602 H 164 NIL_164    0.000
2362 H_1362 23.378 -3.559 19.363 H 164 NIL_164    0.000
2363 H_1341 24.161 -2.665 15.417 H 164 NIL_164    0.000
2364 H_1342 24.382 -4.406 15.697 H 164 NIL_164    0.000
2365 H.fc 25.541 -3.607 17.602 H 164 NIL_164    0.000
2366 HH 23.711 -1.559 18.526 H 164 NIL_164    0.000
2367 C_1480 15.337 5.643 5.374 C.3 165 NIL_165    0.000
2368 C_1481 14.560 5.088 4.154 C.3 165 NIL_165    0.000
2369 C_3528 13.499 4.035 4.528 C.3 165 NIL_165    0.000
2370 H_35281 12.943 3.732 3.639 H 165 NIL_165    0.000
2371 H_35282 12.790 4.443 5.250 H 165 NIL_165    0.000
2372 H_35283 13.961 3.143 4.956 H 165 NIL_165    0.000
2373 H_14811 15.241 4.664 3.418 H 165 NIL_165    0.000
2374 H_14812 14.056 5.924 3.664 H 165 NIL_165    0.000
2375 H_14801 15.985 6.449 5.036 H 165 NIL_165    0.000
2376 H_14802 14.610 6.137 6.025 H 165 NIL_165    0.000
2377 C_3013 28.234 -0.648 6.889 C.3 166 NIL_166    0.000
2378 C_3012 27.565 0.426 5.997 C.3 166 NIL_166    0.000
2379 C_3514 29.591 -1.088 6.312 C.3 166 NIL_166    0.000
2380 H_35141 30.035 -1.862 6.943 H 166 NIL_166    0.000
2381 H_35142 30.282 -0.244 6.267 H 166 NIL_166    0.000
2382 H_35143 29.470 -1.494 5.305 H 166 NIL_166    0.000
2383 H_30121 28.194 1.322 5.996 H 166 NIL_166    0.000
2384 H_30122 27.535 0.068 4.967 H 166 NIL_166    0.000
2385 H_30131 27.586 -1.521 6.987 H 166 NIL_166    0.000
2386 H_30132 28.389 -0.250 7.895 H 166 NIL_166    0.000
2387 C_769 14.152 5.294 18.100 C.3 167 NIL_167    0.000
2388 C_770 12.932 5.519 17.187 C.3 167 NIL_167    0.000
2389 H_7701 12.361 6.385 17.529 H 167 NIL_167    0.000
2390 H_7702 12.269 4.652 17.195 H 167 NIL_167    0.000
2391 H_7703 13.254 5.704 16.160 H 167 NIL_167    0.000
2392 H_7691 14.732 6.221 18.137 H 167 NIL_167    0.000
2393 H_7692 13.814 5.060 19.114 H 167 NIL_167    0.000
2394 C_660 27.277 1.690 18.101 C.3 168 NIL_168    0.000
2395 C_662 28.174 2.715 17.380 C.3 168 NIL_168    0.000
2396 H_6621 28.282 2.458 16.323 H 168 NIL_168    0.000
2397 H_6622 29.167 2.726 17.835 H 168 NIL_168    0.000
2398 H_6623 27.760 3.723 17.454 H 168 NIL_168    0.000
2399 H_6601 27.779 0.719 18.095 H 168 NIL_168    0.000
2400 H_6602 27.147 2.000 19.142 H 168 NIL_168    0.000
2401 C_1479 11.977 -11.280 1.204 C.3 169 NIL_169    0.000
2402 C_1478 10.508 -11.085 0.759 C.3 169 NIL_169    0.000
2403 C_3530 12.480 -12.726 1.050 C.3 169 NIL_169    0.000
2404 H_35301 11.869 -13.419 1.633 H 169 NIL_169    0.000
2405 H_35302 13.510 -12.797 1.408 H 169 NIL_169    0.000
2406 H_35303 12.465 -13.032 0.002 H 169 NIL_169    0.000
2407 H_14781 10.289 -10.013 0.779 H 169 NIL_169    0.000
2408 H_14782 10.416 -11.388 -0.281 H 169 NIL_169    0.000
2409 H_14791 12.103 -10.973 2.244 H 169 NIL_169    0.000
2410 H_14792 12.612 -10.623 0.605 H 169 NIL_169    0.000
2411 C_1303 8.828 -11.136 -9.175 C.3 170 NIL_170    0.000
2412 C_1302 8.104 -11.644 -10.426 C.3 170 NIL_170    0.000
2413 C_1304 9.393 -12.409 -8.486 C.3 170 NIL_170    0.000
2414 N 8.863 -12.807 -10.829 N.am 170 NIL_170    0.000
2415 C_1307 7.899 -10.574 -11.471 C.2 170 NIL_170    0.000
2416 C_1305 9.253 -13.497 -9.602 C.3 170 NIL_170    0.000
2417 N 10.806 -12.128 -8.050 N.am 170 NIL_170    0.000
2418 C_1316 8.467 -12.767 -7.312 C.2 170 NIL_170    0.000
2419 O 7.300 -9.558 -11.164 O.2 170 NIL_170    0.000
2420 O 7.434 -13.399 -7.437 O.2 170 NIL_170    0.000
2421 H_13051 10.169 -14.056 -9.755 H 170 NIL_170    0.000
2422 H_13052 8.468 -14.222 -9.376 H 170 NIL_170    0.000
2423 H_1302 7.105 -11.994 -10.147 H 170 NIL_170    0.000
2424 H_13031 9.641 -10.474 -9.491 H 170 NIL_170    0.000
2425 H_13032 8.165 -10.561 -8.524 H 170 NIL_170    0.000
2426 O 6.190 -21.870 1.057 O.2 171 NIL_171    0.000
2427 C_2478 7.345 -22.128 1.339 C.2 171 NIL_171    0.000
2428 C_2474 8.461 -22.332 0.296 C.3 171 NIL_171    0.000
2429 C_2473 9.165 -20.958 0.129 C.3 171 NIL_171    0.000
2430 C_2475 7.834 -22.479 -1.139 C.3 171 NIL_171    0.000
2431 N 9.419 -23.397 0.775 N.am 171 NIL_171    0.000
2432 C_2472 8.157 -20.179 -0.727 C.3 171 NIL_171    0.000
2433 N 7.703 -21.128 -1.721 N.am 171 NIL_171    0.000
2434 C_2477 8.555 -18.822 -1.245 C.2 171 NIL_171    0.000
2435 O 9.349 -18.114 -0.655 O.2 171 NIL_171    0.000
2436 H_2472 7.289 -19.949 -0.107 H 171 NIL_171    0.000
2437 H_24751 8.464 -23.050 -1.820 H 171 NIL_171    0.000
2438 H_24752 6.853 -22.963 -1.092 H 171 NIL_171    0.000
2439 H_24731 10.114 -21.064 -0.404 H 171 NIL_171    0.000
2440 H_24732 9.345 -20.453 1.076 H 171 NIL_171    0.000
2441 O 12.976 -18.467 -2.874 O.2 172 NIL_172    0.000
2442 C_2958 14.165 -18.256 -2.722 C.2 172 NIL_172    0.000
2443 C_2946 15.226 -18.691 -3.754 C.3 172 NIL_172    0.000
2444 C_2945 14.824 -20.067 -4.381 C.3 172 NIL_172    0.000
2445 C_2947 15.076 -17.725 -4.960 C.3 172 NIL_172    0.000
2446 N 16.643 -18.650 -3.225 N.am 172 NIL_172    0.000
2447 C_2944 15.112 -19.928 -5.887 C.3 172 NIL_172    0.000
2448 N 14.928 -18.522 -6.186 N.am 172 NIL_172    0.000
2449 C_2949 14.345 -20.856 -6.809 C.2 172 NIL_172    0.000
2450 O 14.010 -21.963 -6.430 O.2 172 NIL_172    0.000
2451 H_2944 16.160 -20.154 -6.089 H 172 NIL_172    0.000
2452 H_29471 14.182 -17.104 -4.853 H 172 NIL_172    0.000
2453 H_29472 15.942 -17.063 -5.046 H 172 NIL_172    0.000
2454 H_29451 13.756 -20.264 -4.267 H 172 NIL_172    0.000
2455 H_29452 15.349 -20.910 -3.930 H 172 NIL_172    0.000
2456 C_2849 15.064 -16.935 5.570 C.3 173 NIL_173    0.000
2457 C_2848 15.191 -18.386 4.997 C.3 173 NIL_173    0.000
2458 C_2850 15.024 -16.035 4.306 C.3 173 NIL_173    0.000
2459 N 16.200 -16.523 6.462 N.am 173 NIL_173    0.000
2460 C_2855 13.687 -16.780 6.222 C.2 173 NIL_173    0.000
2461 C_2847 15.444 -18.218 3.488 C.3 173 NIL_173    0.000
2462 N 14.926 -16.908 3.136 N.am 173 NIL_173    0.000
2463 O 12.668 -17.232 5.736 O.2 173 NIL_173    0.000
2464 C_2852 14.911 -19.337 2.614 C.2 173 NIL_173    0.000
2465 O 14.860 -20.480 3.028 O.2 173 NIL_173    0.000
2466 H_2847 16.522 -18.189 3.307 H 173 NIL_173    0.000
2467 H_28501 14.173 -15.348 4.330 H 173 NIL_173    0.000
2468 H_28502 15.944 -15.450 4.220 H 173 NIL_173    0.000
2469 H_28481 14.276 -18.961 5.152 H 173 NIL_173    0.000
2470 H_28482 15.988 -18.969 5.453 H 173 NIL_173    0.000
2471 C_3654 14.614 -13.911 -16.312 C.2 174 NIL_174    0.000
2472 C_3652 14.874 -15.213 -16.178 C.2 174 NIL_174    0.000
2473 C_3656 13.853 -13.469 -17.310 C.2 174 NIL_174    0.000
2474 C_3574 14.374 -16.113 -17.034 C.2 174 NIL_174    0.000
2475 C_3658 13.390 -14.348 -18.203 C.2 174 NIL_174    0.000
2476 C_3668 13.430 -12.015 -17.365 C.3 174 NIL_174    0.000
2477 C_2831 14.546 -17.532 -16.890 C.2 174 NIL_174    0.000
2478 C_3660 13.645 -15.649 -18.065 C.2 174 NIL_174    0.000
2479 NH 12.194 -11.675 -16.623 N.am 174 NIL_174    0.000
2480 O 14.583 -18.159 -17.933 O.2 174 NIL_174    0.000
2481 C_1297 11.290 -12.535 -16.080 C.2 174 NIL_174    0.000
2482 C_1292 10.084 -11.883 -15.424 C.3 174 NIL_174    0.000
2483 O 11.417 -13.745 -16.063 O.2 174 NIL_174    0.000
2484 N 8.836 -12.679 -15.551 N.am 174 NIL_174    0.000
2485 C_1293 10.383 -11.719 -13.920 C.3 174 NIL_174    0.000
2486 C_1295 8.243 -12.834 -14.215 C.3 174 NIL_174    0.000
2487 C_1294 9.067 -12.041 -13.174 C.3 174 NIL_174    0.000
2488 N 8.364 -10.783 -12.735 N.am 174 NIL_174    0.000
2489 C_1306 9.368 -13.050 -12.056 C.2 174 NIL_174    0.000
2490 C_3544 7.979 -9.826 -13.819 C.3 174 NIL_174    0.000
2491 O 10.029 -14.054 -12.254 O.2 174 NIL_174    0.000
2492 C_3546 8.921 -8.619 -14.071 C.3 174 NIL_174    0.000
2493 C_3548 9.155 -7.724 -12.838 C.3 174 NIL_174    0.000
2494 H_35481 9.638 -8.283 -12.035 H 174 NIL_174    0.000
2495 H_35482 8.210 -7.313 -12.472 H 174 NIL_174    0.000
2496 H_35483 9.808 -6.888 -13.101 H 174 NIL_174    0.000
2497 H_35461 8.474 -8.005 -14.857 H 174 NIL_174    0.000
2498 H_35462 9.881 -8.948 -14.463 H 174 NIL_174    0.000
2499 H_35441 6.985 -9.430 -13.591 H 174 NIL_174    0.000
2500 H_35442 7.867 -10.356 -14.765 H 174 NIL_174    0.000
2501 H_12951 8.222 -13.901 -13.976 H 174 NIL_174    0.000
2502 H_12952 7.219 -12.457 -14.208 H 174 NIL_174    0.000
2503 H_12931 11.175 -12.416 -13.635 H 174 NIL_174    0.000
2504 H_12932 10.771 -10.731 -13.674 H 174 NIL_174    0.000
2505 H_1292 9.925 -10.905 -15.889 H 174 NIL_174    0.000
2506 H_3660 13.202 -16.330 -18.788 H 174 NIL_174    0.000
2507 H_36681 14.233 -11.391 -16.964 H 174 NIL_174    0.000
2508 H_36682 13.287 -11.716 -18.408 H 174 NIL_174    0.000
2509 H_3658 12.756 -14.011 -19.020 H 174 NIL_174    0.000
2510 H_3652 15.508 -15.492 -15.355 H 174 NIL_174    0.000
2511 H_3654 15.006 -13.211 -15.577 H 174 NIL_174    0.000
2512 HH 11.994 -10.689 -16.546 H 174 NIL_174    0.000
2513 N 6.327 -18.960 -5.566 N.am 175 NIL_175    0.000
2514 C_2462 7.661 -18.406 -5.682 C.3 175 NIL_175    0.000
2515 C_2465 6.071 -19.034 -4.116 C.3 175 NIL_175    0.000
2516 C_2463 8.454 -19.185 -4.620 C.3 175 NIL_175    0.000
2517 C_2467 8.273 -18.395 -7.064 C.2 175 NIL_175    0.000
2518 C_2464 7.447 -19.345 -3.437 C.3 175 NIL_175    0.000
2519 O 9.401 -17.969 -7.220 O.2 175 NIL_175    0.000
2520 N 7.864 -18.405 -2.339 N.am 175 NIL_175    0.000
2521 C_2476 7.388 -20.827 -3.004 C.2 175 NIL_175    0.000
2522 O 7.059 -21.709 -3.773 O.2 175 NIL_175    0.000
2523 H_24631 8.747 -20.156 -5.029 H 175 NIL_175    0.000
2524 H_24632 9.365 -18.656 -4.333 H 175 NIL_175    0.000
2525 H_24651 5.331 -19.805 -3.885 H 175 NIL_175    0.000
2526 H_24652 5.652 -18.079 -3.798 H 175 NIL_175    0.000
2527 H_2462 7.603 -17.352 -5.402 H 175 NIL_175    0.000
2528 O 5.816 -22.844 -16.346 O.2 176 NIL_176    0.000
2529 C_2349 6.654 -22.431 -15.567 C.2 176 NIL_176    0.000
2530 C_2378 8.040 -22.448 -15.919 C.2 176 NIL_176    0.000
2531 C_3627 8.457 -23.100 -17.012 C.2 176 NIL_176    0.000
2532 C_3635 8.951 -21.782 -15.194 C.2 176 NIL_176    0.000
2533 C_3629 9.740 -23.066 -17.375 C.2 176 NIL_176    0.000
2534 C_3633 10.229 -21.743 -15.566 C.2 176 NIL_176    0.000
2535 C_3631 10.640 -22.378 -16.667 C.2 176 NIL_176    0.000
2536 C_3643 12.078 -22.331 -17.155 C.3 176 NIL_176    0.000
2537 NH 13.074 -21.590 -16.373 N.am 176 NIL_176    0.000
2538 C_2832 13.157 -20.242 -16.327 C.2 176 NIL_176    0.000
2539 C_2827 14.407 -19.714 -15.634 C.3 176 NIL_176    0.000
2540 O 12.290 -19.527 -16.794 O.2 176 NIL_176    0.000
2541 N 14.607 -18.245 -15.717 N.am 176 NIL_176    0.000
2542 C_2828 14.409 -20.127 -14.144 C.3 176 NIL_176    0.000
2543 C_2830 14.664 -17.727 -14.339 C.3 176 NIL_176    0.000
2544 C_2829 14.888 -18.890 -13.343 C.3 176 NIL_176    0.000
2545 N 16.342 -19.012 -12.938 N.am 176 NIL_176    0.000
2546 C_2841 13.909 -18.663 -12.175 C.2 176 NIL_176    0.000
2547 C_3522 17.304 -19.460 -13.991 C.3 176 NIL_176    0.000
2548 O 12.703 -18.616 -12.340 O.2 176 NIL_176    0.000
2549 C_3524 18.484 -18.509 -14.316 C.3 176 NIL_176    0.000
2550 C_3526 18.058 -17.174 -14.950 C.3 176 NIL_176    0.000
2551 H_35261 17.409 -17.341 -15.812 H 176 NIL_176    0.000
2552 H_35262 18.937 -16.623 -15.291 H 176 NIL_176    0.000
2553 H_35263 17.540 -16.548 -14.223 H 176 NIL_176    0.000
2554 H_35241 19.141 -19.022 -15.023 H 176 NIL_176    0.000
2555 H_35242 19.081 -18.309 -13.424 H 176 NIL_176    0.000
2556 H_35221 16.804 -19.651 -14.933 H 176 NIL_176    0.000
2557 H_35222 17.726 -20.415 -13.662 H 176 NIL_176    0.000
2558 H_28301 13.723 -17.204 -14.146 H 176 NIL_176    0.000
2559 H_28302 15.481 -17.032 -14.200 H 176 NIL_176    0.000
2560 H_28281 13.399 -20.423 -13.850 H 176 NIL_176    0.000
2561 H_28282 15.044 -21.000 -13.970 H 176 NIL_176    0.000
2562 H_2827 15.250 -20.196 -16.139 H 176 NIL_176    0.000
2563 H_36431 12.445 -23.357 -17.246 H 176 NIL_176    0.000
2564 H_36432 12.081 -21.900 -18.161 H 176 NIL_176    0.000
2565 H_3633 10.923 -21.168 -14.958 H 176 NIL_176    0.000
2566 H_3629 10.049 -23.598 -18.273 H 176 NIL_176    0.000
2567 H_3635 8.674 -21.222 -14.305 H 176 NIL_176    0.000
2568 H_3627 7.760 -23.662 -17.631 H 176 NIL_176    0.000
2569 HH 13.777 -22.134 -15.896 H 176 NIL_176    0.000
2570 C_2373 7.034 -23.172 6.056 C.2 177 NIL_177    0.000
2571 C_2367 7.755 -22.230 5.080 C.3 177 NIL_177    0.000
2572 O 6.641 -24.275 5.725 O.2 177 NIL_177    0.000
2573 C_2366 9.000 -22.982 4.529 C.3 177 NIL_177    0.000
2574 C_2368 6.862 -22.087 3.812 C.3 177 NIL_177    0.000
2575 N 8.101 -20.883 5.666 N.am 177 NIL_177    0.000
2576 C_2365 9.083 -22.572 3.048 C.3 177 NIL_177    0.000
2577 N 7.721 -22.258 2.631 N.am 177 NIL_177    0.000
2578 C_2370 9.755 -23.537 2.093 C.2 177 NIL_177    0.000
2579 O 10.517 -24.398 2.491 O.2 177 NIL_177    0.000
2580 H_2365 9.667 -21.657 2.969 H 177 NIL_177    0.000
2581 H_23681 6.091 -22.861 3.777 H 177 NIL_177    0.000
2582 H_23682 6.372 -21.111 3.783 H 177 NIL_177    0.000
2583 H_23661 8.861 -24.065 4.581 H 177 NIL_177    0.000
2584 H_23662 9.910 -22.748 5.084 H 177 NIL_177    0.000
2585 C_137 11.219 -22.208 18.121 C.2 178 NIL_178    0.000
2586 C_110 10.194 -22.672 17.075 C.3 178 NIL_178    0.000
2587 O 11.085 -22.412 19.314 O.2 178 NIL_178    0.000
2588 C_109 8.919 -21.810 17.246 C.3 178 NIL_178    0.000
2589 C_111 9.734 -24.108 17.477 C.3 178 NIL_178    0.000
2590 N 10.683 -22.582 15.652 N.am 178 NIL_178    0.000
2591 C_108 7.852 -22.727 17.873 C.3 178 NIL_178    0.000
2592 N 8.257 -24.085 17.466 N.3 178 NIL_178    0.000
2593 C_113 6.470 -22.282 17.439 C.2 178 NIL_178    0.000
2594 O 5.797 -22.887 16.626 O.2 178 NIL_178    0.000
2595 H_108 7.911 -22.643 18.962 H 178 NIL_178    0.000
2596 H_1111 10.124 -24.869 16.797 H 178 NIL_178    0.000
2597 H_1112 10.066 -24.367 18.485 H 178 NIL_178    0.000
2598 H_1091 8.569 -21.452 16.275 H 178 NIL_178    0.000
2599 H_1092 9.091 -20.928 17.870 H 178 NIL_178    0.000
2600 O 8.082 -19.385 7.345 O.2 179 NIL_179    0.000
2601 C_2372 7.843 -20.513 6.952 C.2 179 NIL_179    0.000
2602 C_2376 7.233 -21.513 7.921 C.3 179 NIL_179    0.000
2603 NH 6.805 -22.773 7.321 N.am 179 NIL_179    0.000
2604 C_2388 8.210 -21.746 9.100 C.3 179 NIL_179    0.000
2605 C_2396 7.540 -22.409 10.325 C.3 179 NIL_179    0.000
2606 N 8.427 -22.272 11.485 N.3 179 NIL_179    0.000
2607 N 8.309 -21.184 12.291 N.2 179 NIL_179    0.000
2608 N 8.882 -21.445 13.417 N.2 179 NIL_179    0.000
2609 H_23961 6.584 -21.921 10.539 H 179 NIL_179    0.000
2610 H_23962 7.351 -23.468 10.121 H 179 NIL_179    0.000
2611 H_23881 8.618 -20.784 9.420 H 179 NIL_179    0.000
2612 H_23882 9.054 -22.354 8.765 H 179 NIL_179    0.000
2613 H_2376 6.333 -21.025 8.305 H 179 NIL_179    0.000
2614 HH 6.307 -23.408 7.929 H 179 NIL_179    0.000
2615 C_1312 8.125 -11.846 3.662 C.3 180 NIL_180    0.000
2616 N 7.878 -13.237 3.313 N.am 180 NIL_180    0.000
2617 C_1313 8.316 -11.814 5.187 C.3 180 NIL_180    0.000
2618 C_1317 9.248 -11.219 2.864 C.2 180 NIL_180    0.000
2619 C_1315 7.460 -13.986 4.504 C.3 180 NIL_180    0.000
2620 C_1314 7.501 -13.030 5.725 C.3 180 NIL_180    0.000
2621 O 9.879 -10.282 3.317 O.2 180 NIL_180    0.000
2622 N 6.101 -12.682 6.177 N.am 180 NIL_180    0.000
2623 C_1320 8.333 -13.742 6.802 C.2 180 NIL_180    0.000
2624 O 9.537 -13.899 6.725 O.2 180 NIL_180    0.000
2625 H_13151 8.159 -14.818 4.639 H 180 NIL_180    0.000
2626 H_13152 6.459 -14.399 4.360 H 180 NIL_180    0.000
2627 H_13131 9.383 -11.924 5.387 H 180 NIL_180    0.000
2628 H_13132 8.016 -10.862 5.632 H 180 NIL_180    0.000
2629 H_1312 7.230 -11.284 3.387 H 180 NIL_180    0.000
2630 C_3520 13.452 -23.049 -10.863 C.3 181 NIL_181    0.000
2631 C_3007 14.262 -22.075 -9.988 C.3 181 NIL_181    0.000
2632 C_3006 13.345 -21.284 -9.030 C.3 181 NIL_181    0.000
2633 H_30061 12.609 -20.742 -9.619 H 181 NIL_181    0.000
2634 H_30062 12.759 -22.010 -8.460 H 181 NIL_181    0.000
2635 H_30071 15.000 -22.637 -9.410 H 181 NIL_181    0.000
2636 H_30072 14.797 -21.395 -10.652 H 181 NIL_181    0.000
2637 H_35201 12.748 -22.504 -11.497 H 181 NIL_181    0.000
2638 H_35202 12.892 -23.755 -10.246 H 181 NIL_181    0.000
2639 H_35203 14.124 -23.616 -11.511 H 181 NIL_181    0.000
2640 C_2878 15.173 -14.145 10.249 C.3 182 NIL_182    0.000
2641 N 14.716 -14.063 11.642 N.3 182 NIL_182    0.000
2642 C_2870 14.471 -15.306 9.505 C.3 182 NIL_182    0.000
2643 N 15.532 -13.433 12.531 N.2 182 NIL_182    0.000
2644 C_2858 14.658 -15.287 7.969 C.3 182 NIL_182    0.000
2645 N 15.303 -13.890 13.714 N.2 182 NIL_182    0.000
2646 C_2854 16.062 -15.670 7.517 C.2 182 NIL_182    0.000
2647 NH 13.596 -16.091 7.370 N.am 182 NIL_182    0.000
2648 O 17.039 -15.224 8.088 O.2 182 NIL_182    0.000
2649 H_2858 14.502 -14.265 7.612 H 182 NIL_182    0.000
2650 H_28701 14.808 -16.267 9.904 H 182 NIL_182    0.000
2651 H_28702 13.400 -15.228 9.707 H 182 NIL_182    0.000
2652 H_28781 16.256 -14.289 10.236 H 182 NIL_182    0.000
2653 H_28782 14.939 -13.201 9.749 H 182 NIL_182    0.000
2654 HH 12.695 -16.040 7.821 H 182 NIL_182    0.000
2655 O 16.253 -18.464 16.745 O.2 183 NIL_183    0.000
2656 C_262 15.339 -18.209 17.507 C.2 183 NIL_183    0.000
2657 C_257 15.086 -16.813 18.058 C.3 183 NIL_183    0.000
2658 N 15.946 -15.769 17.461 N.3 183 NIL_183    0.000
2659 C_258 13.624 -16.350 17.838 C.3 183 NIL_183    0.000
2660 C_260 15.171 -14.522 17.347 C.3 183 NIL_183    0.000
2661 C_259 13.672 -14.920 17.245 C.3 183 NIL_183    0.000
2662 N 13.170 -14.938 15.824 N.am 183 NIL_183    0.000
2663 C_271 12.893 -13.975 18.175 C.2 183 NIL_183    0.000
2664 O 13.266 -13.702 19.301 O.2 183 NIL_183    0.000
2665 H_2601 15.493 -13.933 16.485 H 183 NIL_183    0.000
2666 H_2602 15.358 -13.933 18.248 H 183 NIL_183    0.000
2667 H_2581 13.083 -17.024 17.168 H 183 NIL_183    0.000
2668 H_2582 13.094 -16.372 18.793 H 183 NIL_183    0.000
2669 H_257 15.264 -16.856 19.137 H 183 NIL_183    0.000
2670 C_2528 9.920 -24.359 -0.232 C.3 184 NIL_184    0.000
2671 C_2529 8.917 -25.503 -0.523 C.3 184 NIL_184    0.000
2672 C_3502 9.127 -26.715 0.406 C.3 184 NIL_184    0.000
2673 H_35021 10.135 -27.121 0.292 H 184 NIL_184    0.000
2674 H_35022 8.414 -27.504 0.152 H 184 NIL_184    0.000
2675 H_35023 8.977 -26.446 1.453 H 184 NIL_184    0.000
2676 H_25291 9.034 -25.828 -1.560 H 184 NIL_184    0.000
2677 H_25292 7.890 -25.147 -0.419 H 184 NIL_184    0.000
2678 H_25281 10.862 -24.794 0.110 H 184 NIL_184    0.000
2679 H_25282 10.166 -23.825 -1.150 H 184 NIL_184    0.000
2680 C_726 6.675 -14.736 18.303 C.3 185 NIL_185    0.000
2681 C_725 6.348 -13.221 18.239 C.3 185 NIL_185    0.000
2682 C_727 5.566 -15.493 17.528 C.3 185 NIL_185    0.000
2683 N 5.020 -13.118 17.601 N.3 185 NIL_185    0.000
2684 C_729 7.412 -12.410 17.510 C.2 185 NIL_185    0.000
2685 C_728 4.409 -14.455 17.475 C.3 185 NIL_185    0.000
2686 N 6.079 -15.899 16.166 N.am 185 NIL_185    0.000
2687 C_738 5.082 -16.672 18.396 C.2 185 NIL_185    0.000
2688 O 7.153 -11.675 16.575 O.2 185 NIL_185    0.000
2689 O 4.483 -16.511 19.444 O.2 185 NIL_185    0.000
2690 H_7281 3.834 -14.541 16.549 H 185 NIL_185    0.000
2691 H_7282 3.725 -14.585 18.317 H 185 NIL_185    0.000
2692 H_725 6.302 -12.836 19.263 H 185 NIL_185    0.000
2693 H_7261 7.664 -14.978 17.907 H 185 NIL_185    0.000
2694 H_7262 6.680 -15.032 19.356 H 185 NIL_185    0.000
2695 N 14.420 -18.521 -10.934 N.am 186 NIL_186    0.000
2696 C_2935 15.822 -18.461 -10.587 C.3 186 NIL_186    0.000
2697 C_2938 13.668 -18.409 -9.683 C.3 186 NIL_186    0.000
2698 C_2936 15.942 -19.198 -9.244 C.3 186 NIL_186    0.000
2699 C_2939 16.783 -18.935 -11.650 C.2 186 NIL_186    0.000
2700 C_2937 14.552 -19.051 -8.561 C.3 186 NIL_186    0.000
2701 O 17.923 -19.229 -11.339 O.2 186 NIL_186    0.000
2702 N 14.065 -20.395 -8.065 N.am 186 NIL_186    0.000
2703 C_2948 14.770 -18.031 -7.430 C.2 186 NIL_186    0.000
2704 O 14.849 -16.833 -7.616 O.2 186 NIL_186    0.000
2705 H_29361 16.198 -20.246 -9.404 H 186 NIL_186    0.000
2706 H_29362 16.750 -18.770 -8.645 H 186 NIL_186    0.000
2707 H_29381 12.673 -18.841 -9.764 H 186 NIL_186    0.000
2708 H_29382 13.516 -17.345 -9.507 H 186 NIL_186    0.000
2709 H_2935 16.058 -17.405 -10.428 H 186 NIL_186    0.000
2710 N 6.153 -15.569 11.660 N.3 187 NIL_187    0.000
2711 C_1343 6.489 -15.579 10.238 C.3 187 NIL_187    0.000
2712 N 4.870 -15.695 12.087 N.2 187 NIL_187    0.000
2713 C_1335 5.854 -14.372 9.516 C.3 187 NIL_187    0.000
2714 N 4.851 -15.438 13.350 N.2 187 NIL_187    0.000
2715 C_1323 6.252 -14.334 8.022 C.3 187 NIL_187    0.000
2716 C_1319 5.487 -13.279 7.241 C.2 187 NIL_187    0.000
2717 NH 7.698 -14.230 7.879 N.am 187 NIL_187    0.000
2718 O 4.353 -12.980 7.571 O.2 187 NIL_187    0.000
2719 H_1323 5.963 -15.285 7.566 H 187 NIL_187    0.000
2720 H_13351 4.768 -14.449 9.603 H 187 NIL_187    0.000
2721 H_13352 6.161 -13.441 10.001 H 187 NIL_187    0.000
2722 H_13431 6.126 -16.506 9.788 H 187 NIL_187    0.000
2723 H_13432 7.577 -15.546 10.138 H 187 NIL_187    0.000
2724 HH 8.250 -14.670 8.600 H 187 NIL_187    0.000
2725 C_2299 6.389 -14.788 15.220 C.3 188 NIL_188    0.000
2726 C_309 6.010 -15.083 13.787 C.2 188 NIL_188    0.000
2727 C_310 6.806 -15.134 12.740 C.2 188 NIL_188    0.000
2728 H_310 7.873 -14.937 12.711 H 188 NIL_188    0.000
2729 H_22991 7.464 -14.597 15.274 H 188 NIL_188    0.000
2730 H_22992 5.885 -13.865 15.486 H 188 NIL_188    0.000
2731 C_1471 11.843 -12.127 -9.117 C.3 189 NIL_189    0.000
2732 C_1472 12.977 -13.152 -8.898 C.3 189 NIL_189    0.000
2733 C_3542 12.502 -14.612 -8.963 C.3 189 NIL_189    0.000
2734 H_35421 11.687 -14.800 -8.256 H 189 NIL_189    0.000
2735 H_35422 13.324 -15.268 -8.700 H 189 NIL_189    0.000
2736 H_35423 12.178 -14.873 -9.973 H 189 NIL_189    0.000
2737 H_14721 13.458 -12.980 -7.933 H 189 NIL_189    0.000
2738 H_14722 13.742 -12.997 -9.661 H 189 NIL_189    0.000
2739 H_14711 12.289 -11.128 -9.140 H 189 NIL_189    0.000
2740 H_14712 11.405 -12.283 -10.102 H 189 NIL_189    0.000
2741 C_2356 5.150 -19.571 -8.902 C.3 190 NIL_190    0.000
2742 C_2355 4.864 -21.011 -9.360 C.3 190 NIL_190    0.000
2743 C_2357 6.357 -19.759 -7.919 C.3 190 NIL_190    0.000
2744 N 6.188 -21.579 -9.514 N.am 190 NIL_190    0.000
2745 C_2360 3.926 -21.176 -10.533 C.2 190 NIL_190    0.000
2746 C_2358 6.869 -21.194 -8.269 C.3 190 NIL_190    0.000
2747 N 7.501 -18.807 -8.105 N.am 190 NIL_190    0.000
2748 C_2369 5.767 -19.767 -6.497 C.2 190 NIL_190    0.000
2749 O 2.756 -20.887 -10.388 O.2 190 NIL_190    0.000
2750 O 4.813 -20.467 -6.204 O.2 190 NIL_190    0.000
2751 H_23581 7.956 -21.222 -8.382 H 190 NIL_190    0.000
2752 H_23582 6.590 -21.909 -7.487 H 190 NIL_190    0.000
2753 H_2355 4.377 -21.554 -8.542 H 190 NIL_190    0.000
2754 H_23561 5.400 -18.954 -9.764 H 190 NIL_190    0.000
2755 H_23562 4.279 -19.124 -8.421 H 190 NIL_190    0.000
2756 O 7.688 -14.886 1.830 O.2 191 NIL_191    0.000
2757 C_1428 8.010 -13.737 2.067 C.2 191 NIL_191    0.000
2758 C_1424 8.589 -12.779 1.012 C.3 191 NIL_191    0.000
2759 C_1423 7.400 -12.032 0.342 C.3 191 NIL_191    0.000
2760 C_1425 9.203 -13.587 -0.173 C.3 191 NIL_191    0.000
2761 N 9.507 -11.754 1.635 N.am 191 NIL_191    0.000
2762 C_1422 7.536 -12.229 -1.180 C.3 191 NIL_191    0.000
2763 N 8.783 -12.929 -1.412 N.am 191 NIL_191    0.000
2764 C_1427 7.376 -10.972 -2.006 C.2 191 NIL_191    0.000
2765 O 6.591 -10.107 -1.661 O.2 191 NIL_191    0.000
2766 H_1422 6.735 -12.893 -1.514 H 191 NIL_191    0.000
2767 H_14251 10.289 -13.640 -0.112 H 191 NIL_191    0.000
2768 H_14252 8.820 -14.607 -0.215 H 191 NIL_191    0.000
2769 H_14231 7.403 -10.972 0.612 H 191 NIL_191    0.000
2770 H_14232 6.438 -12.440 0.667 H 191 NIL_191    0.000
2771 N 4.430 -21.746 -11.665 N.am 192 NIL_192    0.000
2772 C_2347 5.905 -21.637 -11.977 C.3 192 NIL_192    0.000
2773 C_3508 3.587 -22.623 -12.545 C.3 192 NIL_192    0.000
2774 C_2346 6.112 -20.275 -12.693 C.3 192 NIL_192    0.000
2775 C_2348 6.474 -22.582 -13.080 C.3 192 NIL_192    0.000
2776 C_2359 6.793 -21.723 -10.720 C.2 192 NIL_192    0.000
2777 C_3510 2.158 -22.153 -12.927 C.3 192 NIL_192    0.000
2778 C_2345 5.724 -20.574 -14.153 C.3 192 NIL_192    0.000
2779 N 6.264 -21.921 -14.379 N.am 192 NIL_192    0.000
2780 O 7.999 -21.879 -10.784 O.2 192 NIL_192    0.000
2781 C_3512 2.120 -20.786 -13.639 C.3 192 NIL_192    0.000
2782 C_2350 6.102 -19.492 -15.163 C.2 192 NIL_192    0.000
2783 O 7.227 -19.337 -15.597 O.2 192 NIL_192    0.000
2784 NH 5.065 -18.716 -15.564 N.am 192 NIL_192    0.000
2785 C_3705 5.061 -17.859 -16.763 C.3 192 NIL_192    0.000
2786 C_3693 5.945 -16.628 -16.747 C.2 192 NIL_192    0.000
2787 C_3691 5.629 -15.564 -16.006 C.2 192 NIL_192    0.000
2788 C_3695 7.047 -16.576 -17.499 C.2 192 NIL_192    0.000
2789 C_3689 6.414 -14.486 -15.990 C.2 192 NIL_192    0.000
2790 C_3697 7.829 -15.497 -17.489 C.2 192 NIL_192    0.000
2791 C_3585 7.539 -14.439 -16.719 C.2 192 NIL_192    0.000
2792 C_1296 8.456 -13.340 -16.689 C.2 192 NIL_192    0.000
2793 O 8.982 -13.049 -17.748 O.2 192 NIL_192    0.000
2794 H_3697 8.729 -15.507 -18.101 H 192 NIL_192    0.000
2795 H_3689 6.095 -13.645 -15.387 H 192 NIL_192    0.000
2796 H_3695 7.320 -17.425 -18.121 H 192 NIL_192    0.000
2797 H_3691 4.722 -15.573 -15.404 H 192 NIL_192    0.000
2798 H_37051 4.029 -17.539 -16.931 H 192 NIL_192    0.000
2799 H_37052 5.337 -18.485 -17.617 H 192 NIL_192    0.000
2800 H_35121 1.088 -20.454 -13.760 H 192 NIL_192    0.000
2801 H_35122 2.561 -20.862 -14.635 H 192 NIL_192    0.000
2802 H_35123 2.657 -20.022 -13.070 H 192 NIL_192    0.000
2803 H_2345 4.643 -20.663 -14.208 H 192 NIL_192    0.000
2804 H_35101 1.510 -22.137 -12.050 H 192 NIL_192    0.000
2805 H_35102 1.723 -22.898 -13.598 H 192 NIL_192    0.000
2806 H_23481 7.550 -22.723 -12.963 H 192 NIL_192    0.000
2807 H_23482 6.008 -23.570 -13.055 H 192 NIL_192    0.000
2808 H_23461 7.166 -19.986 -12.655 H 192 NIL_192    0.000
2809 H_23462 5.515 -19.467 -12.262 H 192 NIL_192    0.000
2810 H_35081 3.490 -23.584 -12.031 H 192 NIL_192    0.000
2811 H_35082 4.079 -22.830 -13.494 H 192 NIL_192    0.000
2812 HH 4.169 -18.865 -15.126 H 192 NIL_192    0.000
2813 C_737 4.611 -19.137 18.400 C.3 193 NIL_193    0.000
2814 C.fb 4.998 -20.275 17.430 C.3 193 NIL_193    0.000
2815 N 5.303 -17.922 17.943 N.am 193 NIL_193    0.000
2816 C_735 5.493 -19.499 16.198 C.3 193 NIL_193    0.000
2817 NH 6.086 -21.100 17.969 N.am 193 NIL_193    0.000
2818 C_734 6.168 -18.276 16.834 C.3 193 NIL_193    0.000
2819 C_739 6.482 -17.169 15.861 C.2 193 NIL_193    0.000
2820 O 7.098 -17.444 14.848 O.2 193 NIL_193    0.000
2821 H_734 7.129 -18.580 17.260 H 193 NIL_193    0.000
2822 H_7351 6.178 -20.076 15.572 H 193 NIL_193    0.000
2823 H_7352 4.641 -19.181 15.592 H 193 NIL_193    0.000
2824 H.fb 4.135 -20.903 17.190 H 193 NIL_193    0.000
2825 H_7371 3.533 -18.963 18.348 H 193 NIL_193    0.000
2826 H_7372 4.893 -19.376 19.429 H 193 NIL_193    0.000
2827 HH 6.693 -20.662 18.645 H 193 NIL_193    0.000
2828 C_1417 11.092 -11.562 -6.842 C.2 194 NIL_194    0.000
2829 C_1412 9.937 -11.396 -5.879 C.3 194 NIL_194    0.000
2830 O 12.212 -11.190 -6.545 O.2 194 NIL_194    0.000
2831 N 8.863 -12.351 -6.091 N.am 194 NIL_194    0.000
2832 C_1413 10.299 -11.476 -4.388 C.3 194 NIL_194    0.000
2833 C_1415 8.254 -12.723 -4.806 C.3 194 NIL_194    0.000
2834 C_1414 9.002 -11.970 -3.674 C.3 194 NIL_194    0.000
2835 N 8.131 -10.854 -3.137 N.am 194 NIL_194    0.000
2836 C_1426 9.399 -13.010 -2.607 C.2 194 NIL_194    0.000
2837 O 10.243 -13.868 -2.794 O.2 194 NIL_194    0.000
2838 H_14151 8.352 -13.805 -4.683 H 194 NIL_194    0.000
2839 H_14152 7.190 -12.475 -4.809 H 194 NIL_194    0.000
2840 H_14131 11.113 -12.196 -4.282 H 194 NIL_194    0.000
2841 H_14132 10.666 -10.526 -3.996 H 194 NIL_194    0.000
2842 H_1412 9.528 -10.412 -6.110 H 194 NIL_194    0.000
2843 C_766 9.286 -22.666 13.475 C.2 195 NIL_195    0.000
2844 C_767 8.958 -23.183 12.310 C.2 195 NIL_195    0.000
2845 C_2285 9.928 -23.381 14.644 C.3 195 NIL_195    0.000
2846 H_22851 9.118 -23.937 15.110 H 195 NIL_195    0.000
2847 H_22852 10.624 -24.123 14.245 H 195 NIL_195    0.000
2848 H_767 9.097 -24.208 11.986 H 195 NIL_195    0.000
2849 C_3011 15.056 -20.818 -0.318 C.3 196 NIL_196    0.000
2850 C_3010 13.962 -20.061 0.460 C.3 196 NIL_196    0.000
2851 C_3516 14.450 -21.912 -1.212 C.3 196 NIL_196    0.000
2852 H_35161 13.918 -22.651 -0.609 H 196 NIL_196    0.000
2853 H_35162 15.240 -22.421 -1.767 H 196 NIL_196    0.000
2854 H_35163 13.750 -21.479 -1.930 H 196 NIL_196    0.000
2855 H_30101 13.232 -19.670 -0.244 H 196 NIL_196    0.000
2856 H_30102 13.414 -20.783 1.072 H 196 NIL_196    0.000
2857 H_30111 15.756 -21.274 0.385 H 196 NIL_196    0.000
2858 H_30112 15.626 -20.130 -0.941 H 196 NIL_196    0.000
2859 C_2531 10.188 -19.691 4.810 C.3 197 NIL_197    0.000
2860 C_2530 8.652 -19.857 4.729 C.3 197 NIL_197    0.000
2861 C_3500 10.723 -18.884 3.611 C.3 197 NIL_197    0.000
2862 H_35001 11.813 -18.839 3.635 H 197 NIL_197    0.000
2863 H_35002 10.330 -17.865 3.620 H 197 NIL_197    0.000
2864 H_35003 10.433 -19.356 2.673 H 197 NIL_197    0.000
2865 H_25301 8.195 -18.890 4.954 H 197 NIL_197    0.000
2866 H_25302 8.372 -20.071 3.700 H 197 NIL_197    0.000
2867 H_25311 10.682 -20.664 4.818 H 197 NIL_197    0.000
2868 H_25312 10.452 -19.187 5.742 H 197 NIL_197    0.000
2869 C_2526 7.682 -16.948 -2.563 C.3 198 NIL_198    0.000
2870 C_2527 6.825 -16.282 -1.457 C.3 198 NIL_198    0.000
2871 C_3504 5.457 -16.955 -1.236 C.3 198 NIL_198    0.000
2872 H_35041 4.838 -16.874 -2.132 H 198 NIL_198    0.000
2873 H_35042 4.935 -16.463 -0.413 H 198 NIL_198    0.000
2874 H_35043 5.568 -18.008 -0.976 H 198 NIL_198    0.000
2875 H_25271 6.670 -15.231 -1.704 H 198 NIL_198    0.000
2876 H_25272 7.370 -16.310 -0.515 H 198 NIL_198    0.000
2877 H_25261 7.206 -16.745 -3.518 H 198 NIL_198    0.000
2878 H_25262 8.665 -16.468 -2.587 H 198 NIL_198    0.000
2879 C_188 7.971 -26.567 17.660 C.3 199 NIL_199    0.000
2880 C_112 7.606 -25.180 18.223 C.3 199 NIL_199    0.000
2881 H_1121 6.521 -25.059 18.166 H 199 NIL_199    0.000
2882 H_1122 7.902 -25.126 19.274 H 199 NIL_199    0.000
2883 H_1881 7.424 -27.345 18.196 H 199 NIL_199    0.000
2884 H_1882 9.039 -26.770 17.771 H 199 NIL_199    0.000
2885 H_1883 7.713 -26.631 16.600 H 199 NIL_199    0.000
2886 C_1476 7.985 -9.618 -3.957 C.3 200 NIL_200    0.000
2887 C_1477 6.803 -9.678 -4.954 C.3 200 NIL_200    0.000
2888 C_3532 6.525 -8.299 -5.578 C.3 200 NIL_200    0.000
2889 H_35321 7.384 -7.950 -6.154 H 200 NIL_200    0.000
2890 H_35322 6.302 -7.564 -4.800 H 200 NIL_200    0.000
2891 H_35323 5.664 -8.356 -6.248 H 200 NIL_200    0.000
2892 H_14771 5.901 -10.018 -4.438 H 200 NIL_200    0.000
2893 H_14772 7.008 -10.386 -5.758 H 200 NIL_200    0.000
2894 H_14761 8.902 -9.367 -4.486 H 200 NIL_200    0.000
2895 H_14762 7.812 -8.779 -3.277 H 200 NIL_200    0.000
2896 C_267 11.061 -13.875 16.505 C.3 201 NIL_201    0.000
2897 N 11.772 -13.412 17.684 N.am 201 NIL_201    0.000
2898 C_268 10.241 -12.673 16.023 C.3 201 NIL_201    0.000
2899 C_272 11.933 -14.508 15.447 C.2 201 NIL_201    0.000
2900 C_270 11.100 -12.220 18.220 C.3 201 NIL_201    0.000
2901 C.fa 9.862 -11.970 17.338 C.3 201 NIL_201    0.000
2902 O 11.523 -14.627 14.307 O.2 201 NIL_201    0.000
2903 NH 8.675 -12.578 17.953 N.am 201 NIL_201    0.000
2904 H.fa 9.693 -10.899 17.186 H 201 NIL_201    0.000
2905 H_2701 11.786 -11.371 18.145 H 201 NIL_201    0.000
2906 H_2702 10.818 -12.372 19.266 H 201 NIL_201    0.000
2907 H_2681 9.374 -12.979 15.432 H 201 NIL_201    0.000
2908 H_2682 10.865 -12.011 15.416 H 201 NIL_201    0.000
2909 H_267 10.377 -14.661 16.840 H 201 NIL_201    0.000
2910 HH 8.836 -13.210 18.722 H 201 NIL_201    0.000
2911 C_245 14.142 -14.992 12.424 C.2 202 NIL_202    0.000
2912 C_243 14.473 -14.871 13.690 C.2 202 NIL_202    0.000
2913 C_2292 13.989 -15.707 14.852 C.3 202 NIL_202    0.000
2914 H_22921 13.366 -16.519 14.466 H 202 NIL_202    0.000
2915 H_22922 14.846 -16.184 15.321 H 202 NIL_202    0.000
2916 H_245 13.461 -15.726 12.007 H 202 NIL_202    0.000
2917 C_3518 19.650 -19.221 -5.616 C.3 203 NIL_203    0.000
2918 C_3009 18.398 -18.519 -5.060 C.3 203 NIL_203    0.000
2919 C_3008 17.703 -19.379 -3.980 C.3 203 NIL_203    0.000
2920 H_30081 17.330 -20.296 -4.427 H 203 NIL_203    0.000
2921 H_30082 18.465 -19.709 -3.268 H 203 NIL_203    0.000
2922 H_30091 18.690 -17.554 -4.635 H 203 NIL_203    0.000
2923 H_30092 17.712 -18.320 -5.884 H 203 NIL_203    0.000
2924 H_35181 20.100 -18.616 -6.404 H 203 NIL_203    0.000
2925 H_35182 19.393 -20.196 -6.035 H 203 NIL_203    0.000
2926 H_35183 20.394 -19.365 -4.829 H 203 NIL_203    0.000
2927 O 14.219 -15.392 1.663 O.2 204 NIL_204    0.000
2928 C_2960 14.576 -16.532 1.886 C.2 204 NIL_204    0.000
2929 C_2956 14.688 -17.609 0.797 C.3 204 NIL_204    0.000
2930 C_2955 16.121 -17.486 0.204 C.3 204 NIL_204    0.000
2931 C_2957 13.795 -17.256 -0.434 C.3 204 NIL_204    0.000
2932 N 14.501 -19.001 1.356 N.am 204 NIL_204    0.000
2933 C_2954 15.958 -17.245 -1.308 C.3 204 NIL_204    0.000
2934 N 14.589 -17.604 -1.616 N.am 204 NIL_204    0.000
2935 C_2959 17.023 -17.933 -2.129 C.2 204 NIL_204    0.000
2936 O 18.188 -17.841 -1.790 O.2 204 NIL_204    0.000
2937 H_2954 16.063 -16.175 -1.511 H 204 NIL_204    0.000
2938 H_29571 12.821 -17.748 -0.412 H 204 NIL_204    0.000
2939 H_29572 13.611 -16.181 -0.496 H 204 NIL_204    0.000
2940 H_29551 16.698 -18.393 0.398 H 204 NIL_204    0.000
2941 H_29552 16.678 -16.654 0.644 H 204 NIL_204    0.000
2942 C_2521 8.019 -18.676 -9.492 C.3 205 NIL_205    0.000
2943 C_2522 7.922 -17.244 -10.051 C.3 205 NIL_205    0.000
2944 C_3506 8.341 -17.208 -11.532 C.3 205 NIL_205    0.000
2945 H_35061 7.639 -17.777 -12.143 H 205 NIL_205    0.000
2946 H_35062 9.341 -17.630 -11.664 H 205 NIL_205    0.000
2947 H_35063 8.346 -16.181 -11.903 H 205 NIL_205    0.000
2948 H_25221 8.573 -16.583 -9.474 H 205 NIL_205    0.000
2949 H_25222 6.900 -16.872 -9.958 H 205 NIL_205    0.000
2950 H_25211 7.473 -19.330 -10.167 H 205 NIL_205    0.000
2951 H_25212 9.065 -18.996 -9.511 H 205 NIL_205    0.000
2952 C.fc 14.512 -20.565 17.518 C.3 206 NIL_206    0.000
2953 C_134 13.949 -20.808 16.105 C.3 206 NIL_206    0.000
2954 C_136 13.566 -21.386 18.411 C.3 206 NIL_206    0.000
2955 NH 14.463 -19.153 17.912 N.am 206 NIL_206    0.000
2956 C_133 12.441 -20.997 16.334 C.3 206 NIL_206    0.000
2957 N 12.314 -21.569 17.666 N.am 206 NIL_206    0.000
2958 C_138 11.718 -21.785 15.259 C.2 206 NIL_206    0.000
2959 O 12.069 -21.712 14.097 O.2 206 NIL_206    0.000
2960 H_133 11.963 -20.013 16.366 H 206 NIL_206    0.000
2961 H_1361 14.003 -22.370 18.602 H 206 NIL_206    0.000
2962 H_1362 13.378 -20.880 19.363 H 206 NIL_206    0.000
2963 H_1341 14.161 -19.986 15.417 H 206 NIL_206    0.000
2964 H_1342 14.382 -21.726 15.697 H 206 NIL_206    0.000
2965 H.fc 15.541 -20.928 17.602 H 206 NIL_206    0.000
2966 HH 13.711 -18.880 18.526 H 206 NIL_206    0.000
2967 C_1480 5.337 -11.677 5.374 C.3 207 NIL_207    0.000
2968 C_1481 4.560 -12.232 4.154 C.3 207 NIL_207    0.000
2969 C_3528 3.499 -13.286 4.528 C.3 207 NIL_207    0.000
2970 H_35281 2.943 -13.589 3.639 H 207 NIL_207    0.000
2971 H_35282 2.790 -12.877 5.250 H 207 NIL_207    0.000
2972 H_35283 3.961 -14.178 4.956 H 207 NIL_207    0.000
2973 H_14811 5.241 -12.657 3.418 H 207 NIL_207    0.000
2974 H_14812 4.056 -11.396 3.664 H 207 NIL_207    0.000
2975 H_14801 5.985 -10.872 5.036 H 207 NIL_207    0.000
2976 H_14802 4.610 -11.183 6.025 H 207 NIL_207    0.000
2977 C_3013 18.234 -17.968 6.889 C.3 208 NIL_208    0.000
2978 C_3012 17.565 -16.894 5.997 C.3 208 NIL_208    0.000
2979 C_3514 19.591 -18.409 6.312 C.3 208 NIL_208    0.000
2980 H_35141 20.035 -19.182 6.943 H 208 NIL_208    0.000
2981 H_35142 20.282 -17.564 6.267 H 208 NIL_208    0.000
2982 H_35143 19.470 -18.815 5.305 H 208 NIL_208    0.000
2983 H_30121 18.194 -15.999 5.996 H 208 NIL_208    0.000
2984 H_30122 17.535 -17.252 4.967 H 208 NIL_208    0.000
2985 H_30131 17.586 -18.841 6.987 H 208 NIL_208    0.000
2986 H_30132 18.389 -17.571 7.895 H 208 NIL_208    0.000
2987 C_769 4.152 -12.026 18.100 C.3 209 NIL_209    0.000
2988 C_770 2.932 -11.801 17.187 C.3 209 NIL_209    0.000
2989 H_7701 2.361 -10.935 17.529 H 209 NIL_209    0.000
2990 H_7702 2.269 -12.669 17.195 H 209 NIL_209    0.000
2991 H_7703 3.254 -11.617 16.160 H 209 NIL_209    0.000
2992 H_7691 4.732 -11.100 18.137 H 209 NIL_209    0.000
2993 H_7692 3.814 -12.261 19.114 H 209 NIL_209    0.000
2994 C_660 17.277 -15.631 18.101 C.3 210 NIL_210    0.000
2995 C_662 18.174 -14.606 17.380 C.3 210 NIL_210    0.000
2996 H_6621 18.281 -14.863 16.323 H 210 NIL_210    0.000
2997 H_6622 19.166 -14.594 17.835 H 210 NIL_210    0.000
2998 H_6623 17.760 -13.598 17.454 H 210 NIL_210    0.000
2999 H_6601 17.779 -16.601 18.095 H 210 NIL_210    0.000
3000 H_6602 17.147 -15.320 19.142 H 210 NIL_210    0.000
3001 C_1479 11.977 23.361 1.204 C.3 211 NIL_211    0.000
3002 C_1478 10.508 23.556 0.759 C.3 211 NIL_211    0.000
3003 C_3530 12.480 21.915 1.050 C.3 211 NIL_211    0.000
3004 H_35301 11.869 21.222 1.633 H 211 NIL_211    0.000
3005 H_35302 13.510 21.844 1.408 H 211 NIL_211    0.000
3006 H_35303 12.465 21.609 0.002 H 211 NIL_211    0.000
3007 H_14781 10.289 24.628 0.779 H 211 NIL_211    0.000
3008 H_14782 10.416 23.253 -0.281 H 211 NIL_211    0.000
3009 H_14791 12.103 23.668 2.244 H 211 NIL_211    0.000
3010 H_14792 12.612 24.018 0.605 H 211 NIL_211    0.000
3011 C_1303 8.828 23.505 -9.175 C.3 212 NIL_212    0.000
3012 C_1302 8.104 22.997 -10.426 C.3 212 NIL_212    0.000
3013 C_1304 9.394 22.232 -8.486 C.3 212 NIL_212    0.000
3014 N 8.863 21.835 -10.829 N.am 212 NIL_212    0.000
3015 C_1307 7.899 24.067 -11.471 C.2 212 NIL_212    0.000
3016 C_1305 9.253 21.144 -9.602 C.3 212 NIL_212    0.000
3017 N 10.806 22.513 -8.050 N.am 212 NIL_212    0.000
3018 C_1316 8.467 21.874 -7.312 C.2 212 NIL_212    0.000
3019 O 7.300 25.083 -11.164 O.2 212 NIL_212    0.000
3020 O 7.434 21.242 -7.437 O.2 212 NIL_212    0.000
3021 H_13051 10.169 20.585 -9.755 H 212 NIL_212    0.000
3022 H_13052 8.468 20.419 -9.376 H 212 NIL_212    0.000
3023 H_1302 7.105 22.647 -10.147 H 212 NIL_212    0.000
3024 H_13031 9.641 24.167 -9.491 H 212 NIL_212    0.000
3025 H_13032 8.165 24.080 -8.524 H 212 NIL_212    0.000
3026 O 6.190 12.771 1.057 O.2 213 NIL_213    0.000
3027 C_2478 7.345 12.513 1.339 C.2 213 NIL_213    0.000
3028 C_2474 8.461 12.309 0.296 C.3 213 NIL_213    0.000
3029 C_2473 9.165 13.683 0.129 C.3 213 NIL_213    0.000
3030 C_2475 7.834 12.162 -1.139 C.3 213 NIL_213    0.000
3031 N 9.419 11.244 0.775 N.am 213 NIL_213    0.000
3032 C_2472 8.157 14.462 -0.727 C.3 213 NIL_213    0.000
3033 N 7.703 13.513 -1.721 N.am 213 NIL_213    0.000
3034 C_2477 8.555 15.819 -1.245 C.2 213 NIL_213    0.000
3035 O 9.349 16.527 -0.655 O.2 213 NIL_213    0.000
3036 H_2472 7.289 14.692 -0.107 H 213 NIL_213    0.000
3037 H_24751 8.464 11.591 -1.820 H 213 NIL_213    0.000
3038 H_24752 6.853 11.678 -1.092 H 213 NIL_213    0.000
3039 H_24731 10.114 13.577 -0.404 H 213 NIL_213    0.000
3040 H_24732 9.345 14.188 1.076 H 213 NIL_213    0.000
3041 O 12.976 16.174 -2.874 O.2 214 NIL_214    0.000
3042 C_2958 14.165 16.385 -2.722 C.2 214 NIL_214    0.000
3043 C_2946 15.226 15.950 -3.754 C.3 214 NIL_214    0.000
3044 C_2945 14.824 14.574 -4.381 C.3 214 NIL_214    0.000
3045 C_2947 15.076 16.916 -4.960 C.3 214 NIL_214    0.000
3046 N 16.643 15.991 -3.225 N.am 214 NIL_214    0.000
3047 C_2944 15.112 14.713 -5.887 C.3 214 NIL_214    0.000
3048 N 14.928 16.119 -6.186 N.am 214 NIL_214    0.000
3049 C_2949 14.345 13.785 -6.809 C.2 214 NIL_214    0.000
3050 O 14.010 12.678 -6.430 O.2 214 NIL_214    0.000
3051 H_2944 16.160 14.487 -6.089 H 214 NIL_214    0.000
3052 H_29471 14.182 17.537 -4.853 H 214 NIL_214    0.000
3053 H_29472 15.942 17.578 -5.046 H 214 NIL_214    0.000
3054 H_29451 13.756 14.377 -4.267 H 214 NIL_214    0.000
3055 H_29452 15.349 13.731 -3.930 H 214 NIL_214    0.000
3056 C_2849 15.064 17.706 5.570 C.3 215 NIL_215    0.000
3057 C_2848 15.191 16.255 4.997 C.3 215 NIL_215    0.000
3058 C_2850 15.024 18.606 4.306 C.3 215 NIL_215    0.000
3059 N 16.200 18.118 6.462 N.am 215 NIL_215    0.000
3060 C_2855 13.687 17.861 6.222 C.2 215 NIL_215    0.000
3061 C_2847 15.444 16.423 3.488 C.3 215 NIL_215    0.000
3062 N 14.926 17.733 3.136 N.am 215 NIL_215    0.000
3063 O 12.668 17.409 5.736 O.2 215 NIL_215    0.000
3064 C_2852 14.911 15.304 2.614 C.2 215 NIL_215    0.000
3065 O 14.860 14.161 3.028 O.2 215 NIL_215    0.000
3066 H_2847 16.522 16.452 3.307 H 215 NIL_215    0.000
3067 H_28501 14.173 19.293 4.330 H 215 NIL_215    0.000
3068 H_28502 15.944 19.191 4.220 H 215 NIL_215    0.000
3069 H_28481 14.276 15.680 5.152 H 215 NIL_215    0.000
3070 H_28482 15.988 15.672 5.453 H 215 NIL_215    0.000
3071 C_3654 14.614 20.730 -16.312 C.2 216 NIL_216    0.000
3072 C_3652 14.874 19.428 -16.178 C.2 216 NIL_216    0.000
3073 C_3656 13.853 21.172 -17.310 C.2 216 NIL_216    0.000
3074 C_3574 14.374 18.528 -17.034 C.2 216 NIL_216    0.000
3075 C_3658 13.390 20.293 -18.203 C.2 216 NIL_216    0.000
3076 C_3668 13.430 22.626 -17.365 C.3 216 NIL_216    0.000
3077 C_2831 14.546 17.109 -16.890 C.2 216 NIL_216    0.000
3078 C_3660 13.645 18.992 -18.065 C.2 216 NIL_216    0.000
3079 NH 12.194 22.966 -16.623 N.am 216 NIL_216    0.000
3080 O 14.583 16.482 -17.933 O.2 216 NIL_216    0.000
3081 C_1297 11.290 22.106 -16.080 C.2 216 NIL_216    0.000
3082 C_1292 10.084 22.758 -15.424 C.3 216 NIL_216    0.000
3083 O 11.417 20.896 -16.063 O.2 216 NIL_216    0.000
3084 N 8.836 21.962 -15.551 N.am 216 NIL_216    0.000
3085 C_1293 10.383 22.922 -13.920 C.3 216 NIL_216    0.000
3086 C_1295 8.243 21.807 -14.215 C.3 216 NIL_216    0.000
3087 C_1294 9.067 22.600 -13.174 C.3 216 NIL_216    0.000
3088 N 8.364 23.858 -12.735 N.am 216 NIL_216    0.000
3089 C_1306 9.368 21.591 -12.056 C.2 216 NIL_216    0.000
3090 C_3544 7.979 24.815 -13.819 C.3 216 NIL_216    0.000
3091 O 10.029 20.587 -12.254 O.2 216 NIL_216    0.000
3092 C_3546 8.921 26.022 -14.071 C.3 216 NIL_216    0.000
3093 C_3548 9.155 26.917 -12.838 C.3 216 NIL_216    0.000
3094 H_35481 9.638 26.359 -12.035 H 216 NIL_216    0.000
3095 H_35482 8.210 27.328 -12.472 H 216 NIL_216    0.000
3096 H_35483 9.808 27.753 -13.101 H 216 NIL_216    0.000
3097 H_35461 8.474 26.636 -14.857 H 216 NIL_216    0.000
3098 H_35462 9.881 25.693 -14.463 H 216 NIL_216    0.000
3099 H_35441 6.985 25.211 -13.591 H 216 NIL_216    0.000
3100 H_35442 7.867 24.285 -14.765 H 216 NIL_216    0.000
3101 H_12951 8.222 20.740 -13.976 H 216 NIL_216    0.000
3102 H_12952 7.219 22.184 -14.208 H 216 NIL_216    0.000
3103 H_12931 11.175 22.225 -13.635 H 216 NIL_216    0.000
3104 H_12932 10.771 23.910 -13.674 H 216 NIL_216    0.000
3105 H_1292 9.925 23.736 -15.889 H 216 NIL_216    0.000
3106 H_3660 13.202 18.311 -18.788 H 216 NIL_216    0.000
3107 H_36681 14.233 23.250 -16.964 H 216 NIL_216    0.000
3108 H_36682 13.287 22.925 -18.408 H 216 NIL_216    0.000
3109 H_3658 12.756 20.630 -19.020 H 216 NIL_216    0.000
3110 H_3652 15.508 19.149 -15.355 H 216 NIL_216    0.000
3111 H_3654 15.006 21.430 -15.577 H 216 NIL_216    0.000
3112 HH 11.994 23.952 -16.546 H 216 NIL_216    0.000
3113 N 6.327 15.681 -5.566 N.am 217 NIL_217    0.000
3114 C_2462 7.661 16.235 -5.682 C.3 217 NIL_217    0.000
3115 C_2465 6.071 15.607 -4.116 C.3 217 NIL_217    0.000
3116 C_2463 8.454 15.456 -4.620 C.3 217 NIL_217    0.000
3117 C_2467 8.273 16.246 -7.064 C.2 217 NIL_217    0.000
3118 C_2464 7.447 15.296 -3.437 C.3 217 NIL_217    0.000
3119 O 9.401 16.672 -7.220 O.2 217 NIL_217    0.000
3120 N 7.864 16.236 -2.339 N.am 217 NIL_217    0.000
3121 C_2476 7.388 13.814 -3.004 C.2 217 NIL_217    0.000
3122 O 7.059 12.932 -3.773 O.2 217 NIL_217    0.000
3123 H_24631 8.747 14.485 -5.029 H 217 NIL_217    0.000
3124 H_24632 9.365 15.985 -4.333 H 217 NIL_217    0.000
3125 H_24651 5.331 14.836 -3.885 H 217 NIL_217    0.000
3126 H_24652 5.652 16.562 -3.798 H 217 NIL_217    0.000
3127 H_2462 7.603 17.289 -5.402 H 217 NIL_217    0.000
3128 O 5.816 11.797 -16.346 O.2 218 NIL_218    0.000
3129 C_2349 6.654 12.210 -15.567 C.2 218 NIL_218    0.000
3130 C_2378 8.040 12.193 -15.919 C.2 218 NIL_218    0.000
3131 C_3627 8.457 11.541 -17.012 C.2 218 NIL_218    0.000
3132 C_3635 8.951 12.860 -15.194 C.2 218 NIL_218    0.000
3133 C_3629 9.740 11.575 -17.375 C.2 218 NIL_218    0.000
3134 C_3633 10.229 12.898 -15.566 C.2 218 NIL_218    0.000
3135 C_3631 10.640 12.263 -16.667 C.2 218 NIL_218    0.000
3136 C_3643 12.078 12.310 -17.155 C.3 218 NIL_218    0.000
3137 NH 13.074 13.051 -16.373 N.am 218 NIL_218    0.000
3138 C_2832 13.157 14.399 -16.327 C.2 218 NIL_218    0.000
3139 C_2827 14.407 14.927 -15.634 C.3 218 NIL_218    0.000
3140 O 12.290 15.114 -16.794 O.2 218 NIL_218    0.000
3141 N 14.607 16.396 -15.717 N.am 218 NIL_218    0.000
3142 C_2828 14.409 14.514 -14.144 C.3 218 NIL_218    0.000
3143 C_2830 14.664 16.914 -14.339 C.3 218 NIL_218    0.000
3144 C_2829 14.888 15.751 -13.343 C.3 218 NIL_218    0.000
3145 N 16.342 15.629 -12.938 N.am 218 NIL_218    0.000
3146 C_2841 13.909 15.978 -12.175 C.2 218 NIL_218    0.000
3147 C_3522 17.304 15.181 -13.991 C.3 218 NIL_218    0.000
3148 O 12.703 16.025 -12.340 O.2 218 NIL_218    0.000
3149 C_3524 18.484 16.132 -14.316 C.3 218 NIL_218    0.000
3150 C_3526 18.058 17.467 -14.950 C.3 218 NIL_218    0.000
3151 H_35261 17.409 17.300 -15.812 H 218 NIL_218    0.000
3152 H_35262 18.937 18.018 -15.291 H 218 NIL_218    0.000
3153 H_35263 17.540 18.093 -14.223 H 218 NIL_218    0.000
3154 H_35241 19.141 15.619 -15.023 H 218 NIL_218    0.000
3155 H_35242 19.081 16.332 -13.424 H 218 NIL_218    0.000
3156 H_35221 16.804 14.990 -14.933 H 218 NIL_218    0.000
3157 H_35222 17.726 14.226 -13.662 H 218 NIL_218    0.000
3158 H_28301 13.723 17.437 -14.146 H 218 NIL_218    0.000
3159 H_28302 15.481 17.609 -14.200 H 218 NIL_218    0.000
3160 H_28281 13.399 14.218 -13.850 H 218 NIL_218    0.000
3161 H_28282 15.044 13.641 -13.970 H 218 NIL_218    0.000
3162 H_2827 15.250 14.445 -16.139 H 218 NIL_218    0.000
3163 H_36431 12.445 11.284 -17.246 H 218 NIL_218    0.000
3164 H_36432 12.081 12.741 -18.161 H 218 NIL_218    0.000
3165 H_3633 10.923 13.473 -14.958 H 218 NIL_218    0.000
3166 H_3629 10.049 11.043 -18.273 H 218 NIL_218    0.000
3167 H_3635 8.674 13.419 -14.305 H 218 NIL_218    0.000
3168 H_3627 7.760 10.979 -17.631 H 218 NIL_218    0.000
3169 HH 13.777 12.507 -15.896 H 218 NIL_218    0.000
3170 C_2373 7.034 11.469 6.056 C.2 219 NIL_219    0.000
3171 C_2367 7.755 12.411 5.080 C.3 219 NIL_219    0.000
3172 O 6.641 10.366 5.725 O.2 219 NIL_219    0.000
3173 C_2366 9.000 11.659 4.529 C.3 219 NIL_219    0.000
3174 C_2368 6.862 12.554 3.812 C.3 219 NIL_219    0.000
3175 N 8.101 13.758 5.666 N.am 219 NIL_219    0.000
3176 C_2365 9.083 12.069 3.048 C.3 219 NIL_219    0.000
3177 N 7.721 12.383 2.631 N.am 219 NIL_219    0.000
3178 C_2370 9.755 11.104 2.093 C.2 219 NIL_219    0.000
3179 O 10.517 10.243 2.491 O.2 219 NIL_219    0.000
3180 H_2365 9.667 12.984 2.969 H 219 NIL_219    0.000
3181 H_23681 6.091 11.780 3.777 H 219 NIL_219    0.000
3182 H_23682 6.372 13.530 3.783 H 219 NIL_219    0.000
3183 H_23661 8.861 10.576 4.581 H 219 NIL_219    0.000
3184 H_23662 9.910 11.893 5.084 H 219 NIL_219    0.000
3185 C_137 11.219 12.433 18.121 C.2 220 NIL_220    0.000
3186 C_110 10.194 11.969 17.075 C.3 220 NIL_220    0.000
3187 O 11.085 12.229 19.314 O.2 220 NIL_220    0.000
3188 C_109 8.919 12.831 17.246 C.3 220 NIL_220    0.000
3189 C_111 9.734 10.533 17.477 C.3 220 NIL_220    0.000
3190 N 10.683 12.059 15.652 N.am 220 NIL_220    0.000
3191 C_108 7.852 11.914 17.873 C.3 220 NIL_220    0.000
3192 N 8.257 10.556 17.466 N.3 220 NIL_220    0.000
3193 C_113 6.470 12.359 17.439 C.2 220 NIL_220    0.000
3194 O 5.797 11.754 16.626 O.2 220 NIL_220    0.000
3195 H_108 7.911 11.998 18.962 H 220 NIL_220    0.000
3196 H_1111 10.124 9.772 16.797 H 220 NIL_220    0.000
3197 H_1112 10.066 10.274 18.485 H 220 NIL_220    0.000
3198 H_1091 8.569 13.189 16.275 H 220 NIL_220    0.000
3199 H_1092 9.091 13.713 17.870 H 220 NIL_220    0.000
3200 O 8.082 15.256 7.345 O.2 221 NIL_221    0.000
3201 C_2372 7.843 14.128 6.952 C.2 221 NIL_221    0.000
3202 C_2376 7.233 13.128 7.921 C.3 221 NIL_221    0.000
3203 NH 6.805 11.868 7.321 N.am 221 NIL_221    0.000
3204 C_2388 8.210 12.895 9.100 C.3 221 NIL_221    0.000
3205 C_2396 7.540 12.232 10.325 C.3 221 NIL_221    0.000
3206 N 8.427 12.369 11.485 N.3 221 NIL_221    0.000
3207 N 8.309 13.457 12.291 N.2 221 NIL_221    0.000
3208 N 8.882 13.196 13.417 N.2 221 NIL_221    0.000
3209 H_23961 6.584 12.720 10.539 H 221 NIL_221    0.000
3210 H_23962 7.351 11.173 10.121 H 221 NIL_221    0.000
3211 H_23881 8.618 13.857 9.420 H 221 NIL_221    0.000
3212 H_23882 9.054 12.287 8.765 H 221 NIL_221    0.000
3213 H_2376 6.333 13.616 8.305 H 221 NIL_221    0.000
3214 HH 6.307 11.233 7.929 H 221 NIL_221    0.000
3215 C_1312 8.125 22.795 3.662 C.3 222 NIL_222    0.000
3216 N 7.879 21.404 3.313 N.am 222 NIL_222    0.000
3217 C_1313 8.316 22.827 5.187 C.3 222 NIL_222    0.000
3218 C_1317 9.248 23.422 2.864 C.2 222 NIL_222    0.000
3219 C_1315 7.460 20.655 4.504 C.3 222 NIL_222    0.000
3220 C_1314 7.501 21.611 5.725 C.3 222 NIL_222    0.000
3221 O 9.879 24.359 3.317 O.2 222 NIL_222    0.000
3222 N 6.101 21.959 6.177 N.am 222 NIL_222    0.000
3223 C_1320 8.333 20.899 6.802 C.2 222 NIL_222    0.000
3224 O 9.537 20.742 6.725 O.2 222 NIL_222    0.000
3225 H_13151 8.159 19.823 4.639 H 222 NIL_222    0.000
3226 H_13152 6.459 20.242 4.360 H 222 NIL_222    0.000
3227 H_13131 9.383 22.717 5.387 H 222 NIL_222    0.000
3228 H_13132 8.016 23.779 5.632 H 222 NIL_222    0.000
3229 H_1312 7.230 23.357 3.387 H 222 NIL_222    0.000
3230 C_3520 13.452 11.592 -10.863 C.3 223 NIL_223    0.000
3231 C_3007 14.262 12.566 -9.988 C.3 223 NIL_223    0.000
3232 C_3006 13.345 13.358 -9.030 C.3 223 NIL_223    0.000
3233 H_30061 12.609 13.899 -9.619 H 223 NIL_223    0.000
3234 H_30062 12.759 12.631 -8.460 H 223 NIL_223    0.000
3235 H_30071 15.000 12.004 -9.410 H 223 NIL_223    0.000
3236 H_30072 14.797 13.246 -10.652 H 223 NIL_223    0.000
3237 H_35201 12.748 12.137 -11.497 H 223 NIL_223    0.000
3238 H_35202 12.892 10.886 -10.246 H 223 NIL_223    0.000
3239 H_35203 14.124 11.025 -11.511 H 223 NIL_223    0.000
3240 C_2878 15.173 20.496 10.249 C.3 224 NIL_224    0.000
3241 N 14.716 20.578 11.642 N.3 224 NIL_224    0.000
3242 C_2870 14.471 19.335 9.505 C.3 224 NIL_224    0.000
3243 N 15.532 21.208 12.531 N.2 224 NIL_224    0.000
3244 C_2858 14.658 19.354 7.969 C.3 224 NIL_224    0.000
3245 N 15.303 20.751 13.714 N.2 224 NIL_224    0.000
3246 C_2854 16.062 18.971 7.517 C.2 224 NIL_224    0.000
3247 NH 13.596 18.550 7.370 N.am 224 NIL_224    0.000
3248 O 17.039 19.417 8.088 O.2 224 NIL_224    0.000
3249 H_2858 14.502 20.376 7.612 H 224 NIL_224    0.000
3250 H_28701 14.808 18.374 9.904 H 224 NIL_224    0.000
3251 H_28702 13.400 19.413 9.707 H 224 NIL_224    0.000
3252 H_28781 16.256 20.352 10.236 H 224 NIL_224    0.000
3253 H_28782 14.939 21.440 9.749 H 224 NIL_224    0.000
3254 HH 12.695 18.601 7.821 H 224 NIL_224    0.000
3255 O 16.253 16.177 16.745 O.2 225 NIL_225    0.000
3256 C_262 15.339 16.432 17.507 C.2 225 NIL_225    0.000
3257 C_257 15.086 17.828 18.058 C.3 225 NIL_225    0.000
3258 N 15.946 18.872 17.461 N.3 225 NIL_225    0.000
3259 C_258 13.624 18.291 17.838 C.3 225 NIL_225    0.000
3260 C_260 15.171 20.119 17.347 C.3 225 NIL_225    0.000
3261 C_259 13.672 19.721 17.245 C.3 225 NIL_225    0.000
3262 N 13.170 19.703 15.824 N.am 225 NIL_225    0.000
3263 C_271 12.893 20.666 18.175 C.2 225 NIL_225    0.000
3264 O 13.266 20.939 19.301 O.2 225 NIL_225    0.000
3265 H_2601 15.493 20.708 16.485 H 225 NIL_225    0.000
3266 H_2602 15.358 20.709 18.248 H 225 NIL_225    0.000
3267 H_2581 13.083 17.617 17.168 H 225 NIL_225    0.000
3268 H_2582 13.094 18.269 18.793 H 225 NIL_225    0.000
3269 H_257 15.264 17.785 19.137 H 225 NIL_225    0.000
3270 C_2528 9.920 10.282 -0.232 C.3 226 NIL_226    0.000
3271 C_2529 8.917 9.138 -0.523 C.3 226 NIL_226    0.000
3272 C_3502 9.127 7.926 0.406 C.3 226 NIL_226    0.000
3273 H_35021 10.135 7.520 0.292 H 226 NIL_226    0.000
3274 H_35022 8.414 7.137 0.152 H 226 NIL_226    0.000
3275 H_35023 8.977 8.195 1.453 H 226 NIL_226    0.000
3276 H_25291 9.034 8.813 -1.560 H 226 NIL_226    0.000
3277 H_25292 7.890 9.494 -0.419 H 226 NIL_226    0.000
3278 H_25281 10.862 9.847 0.110 H 226 NIL_226    0.000
3279 H_25282 10.166 10.816 -1.150 H 226 NIL_226    0.000
3280 C_726 6.675 19.905 18.303 C.3 227 NIL_227    0.000
3281 C_725 6.348 21.420 18.239 C.3 227 NIL_227    0.000
3282 C_727 5.567 19.148 17.528 C.3 227 NIL_227    0.000
3283 N 5.020 21.523 17.601 N.3 227 NIL_227    0.000
3284 C_729 7.412 22.231 17.510 C.2 227 NIL_227    0.000
3285 C_728 4.409 20.186 17.475 C.3 227 NIL_227    0.000
3286 N 6.079 18.742 16.166 N.am 227 NIL_227    0.000
3287 C_738 5.082 17.969 18.396 C.2 227 NIL_227    0.000
3288 O 7.153 22.966 16.575 O.2 227 NIL_227    0.000
3289 O 4.483 18.130 19.444 O.2 227 NIL_227    0.000
3290 H_7281 3.834 20.100 16.549 H 227 NIL_227    0.000
3291 H_7282 3.725 20.056 18.317 H 227 NIL_227    0.000
3292 H_725 6.302 21.805 19.263 H 227 NIL_227    0.000
3293 H_7261 7.664 19.663 17.907 H 227 NIL_227    0.000
3294 H_7262 6.680 19.609 19.356 H 227 NIL_227    0.000
3295 N 14.420 16.120 -10.934 N.am 228 NIL_228    0.000
3296 C_2935 15.822 16.180 -10.587 C.3 228 NIL_228    0.000
3297 C_2938 13.668 16.232 -9.683 C.3 228 NIL_228    0.000
3298 C_2936 15.942 15.443 -9.244 C.3 228 NIL_228    0.000
3299 C_2939 16.783 15.706 -11.650 C.2 228 NIL_228    0.000
3300 C_2937 14.552 15.591 -8.561 C.3 228 NIL_228    0.000
3301 O 17.923 15.412 -11.339 O.2 228 NIL_228    0.000
3302 N 14.065 14.246 -8.065 N.am 228 NIL_228    0.000
3303 C_2948 14.770 16.610 -7.430 C.2 228 NIL_228    0.000
3304 O 14.849 17.809 -7.616 O.2 228 NIL_228    0.000
3305 H_29361 16.198 14.395 -9.404 H 228 NIL_228    0.000
3306 H_29362 16.750 15.871 -8.645 H 228 NIL_228    0.000
3307 H_29381 12.673 15.800 -9.764 H 228 NIL_228    0.000
3308 H_29382 13.516 17.296 -9.507 H 228 NIL_228    0.000
3309 H_2935 16.058 17.236 -10.428 H 228 NIL_228    0.000
3310 N 6.153 19.072 11.660 N.3 229 NIL_229    0.000
3311 C_1343 6.489 19.062 10.238 C.3 229 NIL_229    0.000
3312 N 4.870 18.946 12.087 N.2 229 NIL_229    0.000
3313 C_1335 5.854 20.269 9.516 C.3 229 NIL_229    0.000
3314 N 4.851 19.203 13.350 N.2 229 NIL_229    0.000
3315 C_1323 6.252 20.307 8.022 C.3 229 NIL_229    0.000
3316 C_1319 5.487 21.362 7.241 C.2 229 NIL_229    0.000
3317 NH 7.698 20.411 7.879 N.am 229 NIL_229    0.000
3318 O 4.353 21.661 7.571 O.2 229 NIL_229    0.000
3319 H_1323 5.963 19.356 7.566 H 229 NIL_229    0.000
3320 H_13351 4.768 20.192 9.603 H 229 NIL_229    0.000
3321 H_13352 6.161 21.200 10.001 H 229 NIL_229    0.000
3322 H_13431 6.126 18.135 9.788 H 229 NIL_229    0.000
3323 H_13432 7.578 19.095 10.138 H 229 NIL_229    0.000
3324 HH 8.250 19.971 8.600 H 229 NIL_229    0.000
3325 C_2299 6.389 19.853 15.220 C.3 230 NIL_230    0.000
3326 C_309 6.010 19.558 13.787 C.2 230 NIL_230    0.000
3327 C_310 6.806 19.507 12.740 C.2 230 NIL_230    0.000
3328 H_310 7.873 19.704 12.711 H 230 NIL_230    0.000
3329 H_22991 7.464 20.044 15.274 H 230 NIL_230    0.000
3330 H_22992 5.885 20.776 15.486 H 230 NIL_230    0.000
3331 C_1471 11.843 22.514 -9.117 C.3 231 NIL_231    0.000
3332 C_1472 12.977 21.489 -8.898 C.3 231 NIL_231    0.000
3333 C_3542 12.502 20.029 -8.963 C.3 231 NIL_231    0.000
3334 H_35421 11.687 19.841 -8.256 H 231 NIL_231    0.000
3335 H_35422 13.324 19.373 -8.700 H 231 NIL_231    0.000
3336 H_35423 12.178 19.769 -9.973 H 231 NIL_231    0.000
3337 H_14721 13.458 21.662 -7.933 H 231 NIL_231    0.000
3338 H_14722 13.742 21.644 -9.661 H 231 NIL_231    0.000
3339 H_14711 12.289 23.513 -9.140 H 231 NIL_231    0.000
3340 H_14712 11.405 22.358 -10.102 H 231 NIL_231    0.000
3341 C_2356 5.150 15.070 -8.902 C.3 232 NIL_232    0.000
3342 C_2355 4.864 13.630 -9.360 C.3 232 NIL_232    0.000
3343 C_2357 6.357 14.882 -7.919 C.3 232 NIL_232    0.000
3344 N 6.188 13.062 -9.514 N.am 232 NIL_232    0.000
3345 C_2360 3.926 13.465 -10.533 C.2 232 NIL_232    0.000
3346 C_2358 6.870 13.447 -8.269 C.3 232 NIL_232    0.000
3347 N 7.501 15.834 -8.105 N.am 232 NIL_232    0.000
3348 C_2369 5.767 14.874 -6.497 C.2 232 NIL_232    0.000
3349 O 2.756 13.754 -10.388 O.2 232 NIL_232    0.000
3350 O 4.813 14.174 -6.204 O.2 232 NIL_232    0.000
3351 H_23581 7.956 13.419 -8.382 H 232 NIL_232    0.000
3352 H_23582 6.590 12.732 -7.487 H 232 NIL_232    0.000
3353 H_2355 4.377 13.087 -8.542 H 232 NIL_232    0.000
3354 H_23561 5.400 15.687 -9.764 H 232 NIL_232    0.000
3355 H_23562 4.279 15.517 -8.421 H 232 NIL_232    0.000
3356 O 7.688 19.755 1.830 O.2 233 NIL_233    0.000
3357 C_1428 8.010 20.904 2.067 C.2 233 NIL_233    0.000
3358 C_1424 8.589 21.862 1.012 C.3 233 NIL_233    0.000
3359 C_1423 7.400 22.609 0.342 C.3 233 NIL_233    0.000
3360 C_1425 9.203 21.054 -0.173 C.3 233 NIL_233    0.000
3361 N 9.507 22.887 1.635 N.am 233 NIL_233    0.000
3362 C_1422 7.536 22.412 -1.180 C.3 233 NIL_233    0.000
3363 N 8.783 21.712 -1.412 N.am 233 NIL_233    0.000
3364 C_1427 7.376 23.669 -2.006 C.2 233 NIL_233    0.000
3365 O 6.591 24.534 -1.661 O.2 233 NIL_233    0.000
3366 H_1422 6.735 21.748 -1.514 H 233 NIL_233    0.000
3367 H_14251 10.289 21.001 -0.112 H 233 NIL_233    0.000
3368 H_14252 8.820 20.034 -0.215 H 233 NIL_233    0.000
3369 H_14231 7.403 23.669 0.612 H 233 NIL_233    0.000
3370 H_14232 6.438 22.201 0.667 H 233 NIL_233    0.000
3371 N 4.430 12.895 -11.665 N.am 234 NIL_234    0.000
3372 C_2347 5.905 13.004 -11.977 C.3 234 NIL_234    0.000
3373 C_3508 3.587 12.018 -12.545 C.3 234 NIL_234    0.000
3374 C_2346 6.112 14.367 -12.693 C.3 234 NIL_234    0.000
3375 C_2348 6.474 12.059 -13.080 C.3 234 NIL_234    0.000
3376 C_2359 6.793 12.918 -10.720 C.2 234 NIL_234    0.000
3377 C_3510 2.158 12.488 -12.927 C.3 234 NIL_234    0.000
3378 C_2345 5.724 14.067 -14.153 C.3 234 NIL_234    0.000
3379 N 6.264 12.720 -14.379 N.am 234 NIL_234    0.000
3380 O 7.999 12.762 -10.784 O.2 234 NIL_234    0.000
3381 C_3512 2.120 13.855 -13.639 C.3 234 NIL_234    0.000
3382 C_2350 6.102 15.149 -15.163 C.2 234 NIL_234    0.000
3383 O 7.227 15.304 -15.597 O.2 234 NIL_234    0.000
3384 NH 5.065 15.925 -15.564 N.am 234 NIL_234    0.000
3385 C_3705 5.062 16.782 -16.763 C.3 234 NIL_234    0.000
3386 C_3693 5.945 18.013 -16.747 C.2 234 NIL_234    0.000
3387 C_3691 5.629 19.077 -16.006 C.2 234 NIL_234    0.000
3388 C_3695 7.047 18.065 -17.499 C.2 234 NIL_234    0.000
3389 C_3689 6.414 20.155 -15.990 C.2 234 NIL_234    0.000
3390 C_3697 7.829 19.144 -17.489 C.2 234 NIL_234    0.000
3391 C_3585 7.539 20.202 -16.719 C.2 234 NIL_234    0.000
3392 C_1296 8.456 21.301 -16.689 C.2 234 NIL_234    0.000
3393 O 8.982 21.592 -17.748 O.2 234 NIL_234    0.000
3394 H_3697 8.729 19.134 -18.101 H 234 NIL_234    0.000
3395 H_3689 6.095 20.996 -15.387 H 234 NIL_234    0.000
3396 H_3695 7.320 17.216 -18.121 H 234 NIL_234    0.000
3397 H_3691 4.722 19.068 -15.404 H 234 NIL_234    0.000
3398 H_37051 4.029 17.102 -16.931 H 234 NIL_234    0.000
3399 H_37052 5.337 16.156 -17.617 H 234 NIL_234    0.000
3400 H_35121 1.088 14.187 -13.760 H 234 NIL_234    0.000
3401 H_35122 2.561 13.779 -14.635 H 234 NIL_234    0.000
3402 H_35123 2.657 14.619 -13.070 H 234 NIL_234    0.000
3403 H_2345 4.643 13.978 -14.208 H 234 NIL_234    0.000
3404 H_35101 1.510 12.504 -12.050 H 234 NIL_234    0.000
3405 H_35102 1.723 11.743 -13.598 H 234 NIL_234    0.000
3406 H_23481 7.550 11.918 -12.963 H 234 NIL_234    0.000
3407 H_23482 6.008 11.071 -13.055 H 234 NIL_234    0.000
3408 H_23461 7.166 14.655 -12.655 H 234 NIL_234    0.000
3409 H_23462 5.515 15.174 -12.262 H 234 NIL_234    0.000
3410 H_35081 3.490 11.057 -12.031 H 234 NIL_234    0.000
3411 H_35082 4.079 11.811 -13.494 H 234 NIL_234    0.000
3412 HH 4.169 15.776 -15.126 H 234 NIL_234    0.000
3413 C_737 4.611 15.504 18.400 C.3 235 NIL_235    0.000
3414 C.fb 4.998 14.366 17.430 C.3 235 NIL_235    0.000
3415 N 5.303 16.719 17.943 N.am 235 NIL_235    0.000
3416 C_735 5.494 15.142 16.198 C.3 235 NIL_235    0.000
3417 NH 6.086 13.541 17.969 N.am 235 NIL_235    0.000
3418 C_734 6.168 16.365 16.834 C.3 235 NIL_235    0.000
3419 C_739 6.482 17.472 15.861 C.2 235 NIL_235    0.000
3420 O 7.098 17.197 14.848 O.2 235 NIL_235    0.000
3421 H_734 7.129 16.061 17.260 H 235 NIL_235    0.000
3422 H_7351 6.178 14.565 15.572 H 235 NIL_235    0.000
3423 H_7352 4.641 15.460 15.592 H 235 NIL_235    0.000
3424 H.fb 4.135 13.738 17.190 H 235 NIL_235    0.000
3425 H_7371 3.533 15.678 18.348 H 235 NIL_235    0.000
3426 H_7372 4.893 15.265 19.429 H 235 NIL_235    0.000
3427 HH 6.693 13.979 18.645 H 235 NIL_235    0.000
3428 C_1417 11.092 23.079 -6.842 C.2 236 NIL_236    0.000
3429 C_1412 9.937 23.245 -5.879 C.3 236 NIL_236    0.000
3430 O 12.212 23.451 -6.545 O.2 236 NIL_236    0.000
3431 N 8.863 22.290 -6.091 N.am 236 NIL_236    0.000
3432 C_1413 10.299 23.165 -4.388 C.3 236 NIL_236    0.000
3433 C_1415 8.254 21.918 -4.806 C.3 236 NIL_236    0.000
3434 C_1414 9.002 22.671 -3.674 C.3 236 NIL_236    0.000
3435 N 8.131 23.787 -3.137 N.am 236 NIL_236    0.000
3436 C_1426 9.399 21.631 -2.607 C.2 236 NIL_236    0.000
3437 O 10.243 20.773 -2.794 O.2 236 NIL_236    0.000
3438 H_14151 8.352 20.836 -4.683 H 236 NIL_236    0.000
3439 H_14152 7.190 22.166 -4.809 H 236 NIL_236    0.000
3440 H_14131 11.113 22.445 -4.282 H 236 NIL_236    0.000
3441 H_14132 10.666 24.115 -3.996 H 236 NIL_236    0.000
3442 H_1412 9.528 24.229 -6.110 H 236 NIL_236    0.000
3443 C_766 9.286 11.975 13.475 C.2 237 NIL_237    0.000
3444 C_767 8.958 11.458 12.310 C.2 237 NIL_237    0.000
3445 C_2285 9.928 11.260 14.644 C.3 237 NIL_237    0.000
3446 H_22851 9.118 10.704 15.110 H 237 NIL_237    0.000
3447 H_22852 10.624 10.518 14.245 H 237 NIL_237    0.000
3448 H_767 9.097 10.433 11.986 H 237 NIL_237    0.000
3449 C_3011 15.056 13.823 -0.318 C.3 238 NIL_238    0.000
3450 C_3010 13.962 14.580 0.460 C.3 238 NIL_238    0.000
3451 C_3516 14.450 12.729 -1.212 C.3 238 NIL_238    0.000
3452 H_35161 13.918 11.990 -0.609 H 238 NIL_238    0.000
3453 H_35162 15.240 12.220 -1.767 H 238 NIL_238    0.000
3454 H_35163 13.750 13.162 -1.930 H 238 NIL_238    0.000
3455 H_30101 13.232 14.971 -0.244 H 238 NIL_238    0.000
3456 H_30102 13.414 13.858 1.072 H 238 NIL_238    0.000
3457 H_30111 15.756 13.367 0.385 H 238 NIL_238    0.000
3458 H_30112 15.626 14.511 -0.941 H 238 NIL_238    0.000
3459 C_2531 10.188 14.950 4.810 C.3 239 NIL_239    0.000
3460 C_2530 8.652 14.784 4.729 C.3 239 NIL_239    0.000
3461 C_3500 10.723 15.757 3.611 C.3 239 NIL_239    0.000
3462 H_35001 11.813 15.802 3.635 H 239 NIL_239    0.000
3463 H_35002 10.330 16.776 3.620 H 239 NIL_239    0.000
3464 H_35003 10.433 15.285 2.673 H 239 NIL_239    0.000
3465 H_25301 8.195 15.751 4.954 H 239 NIL_239    0.000
3466 H_25302 8.372 14.570 3.700 H 239 NIL_239    0.000
3467 H_25311 10.682 13.977 4.818 H 239 NIL_239    0.000
3468 H_25312 10.452 15.454 5.742 H 239 NIL_239    0.000
3469 C_2526 7.682 17.693 -2.563 C.3 240 NIL_240    0.000
3470 C_2527 6.825 18.359 -1.457 C.3 240 NIL_240    0.000
3471 C_3504 5.457 17.686 -1.236 C.3 240 NIL_240    0.000
3472 H_35041 4.838 17.767 -2.132 H 240 NIL_240    0.000
3473 H_35042 4.935 18.178 -0.413 H 240 NIL_240    0.000
3474 H_35043 5.568 16.633 -0.976 H 240 NIL_240    0.000
3475 H_25271 6.670 19.410 -1.704 H 240 NIL_240    0.000
3476 H_25272 7.370 18.331 -0.515 H 240 NIL_240    0.000
3477 H_25261 7.206 17.896 -3.518 H 240 NIL_240    0.000
3478 H_25262 8.665 18.173 -2.587 H 240 NIL_240    0.000
3479 C_188 7.971 8.074 17.660 C.3 241 NIL_241    0.000
3480 C_112 7.606 9.461 18.223 C.3 241 NIL_241    0.000
3481 H_1121 6.521 9.583 18.166 H 241 NIL_241    0.000
3482 H_1122 7.902 9.515 19.274 H 241 NIL_241    0.000
3483 H_1881 7.424 7.296 18.196 H 241 NIL_241    0.000
3484 H_1882 9.039 7.871 17.771 H 241 NIL_241    0.000
3485 H_1883 7.713 8.010 16.600 H 241 NIL_241    0.000
3486 C_1476 7.985 25.023 -3.957 C.3 242 NIL_242    0.000
3487 C_1477 6.803 24.963 -4.954 C.3 242 NIL_242    0.000
3488 C_3532 6.525 26.342 -5.578 C.3 242 NIL_242    0.000
3489 H_35321 7.384 26.691 -6.154 H 242 NIL_242    0.000
3490 H_35322 6.302 27.077 -4.800 H 242 NIL_242    0.000
3491 H_35323 5.664 26.285 -6.248 H 242 NIL_242    0.000
3492 H_14771 5.901 24.623 -4.438 H 242 NIL_242    0.000
3493 H_14772 7.008 24.255 -5.758 H 242 NIL_242    0.000
3494 H_14761 8.902 25.274 -4.486 H 242 NIL_242    0.000
3495 H_14762 7.812 25.862 -3.277 H 242 NIL_242    0.000
3496 C_267 11.061 20.766 16.505 C.3 243 NIL_243    0.000
3497 N 11.772 21.229 17.684 N.am 243 NIL_243    0.000
3498 C_268 10.241 21.968 16.023 C.3 243 NIL_243    0.000
3499 C_272 11.933 20.133 15.447 C.2 243 NIL_243    0.000
3500 C_270 11.100 22.421 18.220 C.3 243 NIL_243    0.000
3501 C.fa 9.862 22.671 17.338 C.3 243 NIL_243    0.000
3502 O 11.523 20.014 14.307 O.2 243 NIL_243    0.000
3503 NH 8.675 22.063 17.953 N.am 243 NIL_243    0.000
3504 H.fa 9.693 23.742 17.186 H 243 NIL_243    0.000
3505 H_2701 11.786 23.270 18.145 H 243 NIL_243    0.000
3506 H_2702 10.818 22.269 19.266 H 243 NIL_243    0.000
3507 H_2681 9.374 21.662 15.432 H 243 NIL_243    0.000
3508 H_2682 10.865 22.630 15.416 H 243 NIL_243    0.000
3509 H_267 10.377 19.980 16.840 H 243 NIL_243    0.000
3510 HH 8.836 21.431 18.722 H 243 NIL_243    0.000
3511 C_245 14.142 19.649 12.424 C.2 244 NIL_244    0.000
3512 C_243 14.473 19.770 13.690 C.2 244 NIL_244    0.000
3513 C_2292 13.989 18.934 14.852 C.3 244 NIL_244    0.000
3514 H_22921 13.366 18.122 14.466 H 244 NIL_244    0.000
3515 H_22922 14.846 18.457 15.321 H 244 NIL_244    0.000
3516 H_245 13.461 18.915 12.007 H 244 NIL_244    0.000
3517 C_3518 19.650 15.420 -5.616 C.3 245 NIL_245    0.000
3518 C_3009 18.398 16.122 -5.060 C.3 245 NIL_245    0.000
3519 C_3008 17.703 15.262 -3.980 C.3 245 NIL_245    0.000
3520 H_30081 17.330 14.345 -4.427 H 245 NIL_245    0.000
3521 H_30082 18.465 14.932 -3.268 H 245 NIL_245    0.000
3522 H_30091 18.690 17.087 -4.635 H 245 NIL_245    0.000
3523 H_30092 17.712 16.321 -5.884 H 245 NIL_245    0.000
3524 H_35181 20.100 16.025 -6.404 H 245 NIL_245    0.000
3525 H_35182 19.393 14.445 -6.035 H 245 NIL_245    0.000
3526 H_35183 20.394 15.276 -4.829 H 245 NIL_245    0.000
3527 O 14.219 19.249 1.663 O.2 246 NIL_246    0.000
3528 C_2960 14.576 18.109 1.886 C.2 246 NIL_246    0.000
3529 C_2956 14.688 17.032 0.797 C.3 246 NIL_246    0.000
3530 C_2955 16.121 17.155 0.204 C.3 246 NIL_246    0.000
3531 C_2957 13.795 17.385 -0.434 C.3 246 NIL_246    0.000
3532 N 14.501 15.641 1.356 N.am 246 NIL_246    0.000
3533 C_2954 15.958 17.396 -1.308 C.3 246 NIL_246    0.000
3534 N 14.589 17.037 -1.616 N.am 246 NIL_246    0.000
3535 C_2959 17.023 16.708 -2.129 C.2 246 NIL_246    0.000
3536 O 18.188 16.800 -1.790 O.2 246 NIL_246    0.000
3537 H_2954 16.063 18.466 -1.511 H 246 NIL_246    0.000
3538 H_29571 12.821 16.893 -0.412 H 246 NIL_246    0.000
3539 H_29572 13.611 18.460 -0.496 H 246 NIL_246    0.000
3540 H_29551 16.698 16.248 0.398 H 246 NIL_246    0.000
3541 H_29552 16.678 17.987 0.644 H 246 NIL_246    0.000
3542 C_2521 8.019 15.965 -9.492 C.3 247 NIL_247    0.000
3543 C_2522 7.922 17.397 -10.051 C.3 247 NIL_247    0.000
3544 C_3506 8.341 17.433 -11.532 C.3 247 NIL_247    0.000
3545 H_35061 7.639 16.864 -12.143 H 247 NIL_247    0.000
3546 H_35062 9.341 17.011 -11.664 H 247 NIL_247    0.000
3547 H_35063 8.346 18.460 -11.903 H 247 NIL_247    0.000
3548 H_25221 8.573 18.058 -9.474 H 247 NIL_247    0.000
3549 H_25222 6.900 17.769 -9.958 H 247 NIL_247    0.000
3550 H_25211 7.473 15.311 -10.167 H 247 NIL_247    0.000
3551 H_25212 9.065 15.645 -9.511 H 247 NIL_247    0.000
3552 C.fc 14.512 14.076 17.518 C.3 248 NIL_248    0.000
3553 C_134 13.949 13.833 16.105 C.3 248 NIL_248    0.000
3554 C_136 13.566 13.255 18.411 C.3 248 NIL_248    0.000
3555 NH 14.463 15.488 17.912 N.am 248 NIL_248    0.000
3556 C_133 12.441 13.644 16.334 C.3 248 NIL_248    0.000
3557 N 12.314 13.072 17.666 N.am 248 NIL_248    0.000
3558 C_138 11.718 12.856 15.259 C.2 248 NIL_248    0.000
3559 O 12.069 12.929 14.097 O.2 248 NIL_248    0.000
3560 H_133 11.963 14.628 16.366 H 248 NIL_248    0.000
3561 H_1361 14.003 12.271 18.602 H 248 NIL_248    0.000
3562 H_1362 13.378 13.761 19.363 H 248 NIL_248    0.000
3563 H_1341 14.161 14.655 15.417 H 248 NIL_248    0.000
3564 H_1342 14.382 12.915 15.697 H 248 NIL_248    0.000
3565 H.fc 15.541 13.713 17.602 H 248 NIL_248    0.000
3566 HH 13.711 15.761 18.526 H 248 NIL_248    0.000
3567 C_1480 5.337 22.964 5.374 C.3 249 NIL_249    0.000
3568 C_1481 4.560 22.409 4.154 C.3 249 NIL_249    0.000
3569 C_3528 3.500 21.355 4.528 C.3 249 NIL_249    0.000
3570 H_35281 2.943 21.052 3.639 H 249 NIL_249    0.000
3571 H_35282 2.790 21.764 5.250 H 249 NIL_249    0.000
3572 H_35283 3.961 20.463 4.956 H 249 NIL_249    0.000
3573 H_14811 5.241 21.984 3.418 H 249 NIL_249    0.000
3574 H_14812 4.056 23.245 3.664 H 249 NIL_249    0.000
3575 H_14801 5.985 23.769 5.036 H 249 NIL_249    0.000
3576 H_14802 4.610 23.458 6.025 H 249 NIL_249    0.000
3577 C_3013 18.234 16.673 6.889 C.3 250 NIL_250    0.000
3578 C_3012 17.565 17.747 5.997 C.3 250 NIL_250    0.000
3579 C_3514 19.591 16.232 6.312 C.3 250 NIL_250    0.000
3580 H_35141 20.035 15.459 6.943 H 250 NIL_250    0.000
3581 H_35142 20.282 17.077 6.267 H 250 NIL_250    0.000
3582 H_35143 19.470 15.826 5.305 H 250 NIL_250    0.000
3583 H_30121 18.194 18.642 5.996 H 250 NIL_250    0.000
3584 H_30122 17.535 17.389 4.967 H 250 NIL_250    0.000
3585 H_30131 17.586 15.800 6.987 H 250 NIL_250    0.000
3586 H_30132 18.389 17.070 7.895 H 250 NIL_250    0.000
3587 C_769 4.152 22.615 18.100 C.3 251 NIL_251    0.000
3588 C_770 2.932 22.840 17.187 C.3 251 NIL_251    0.000
3589 H_7701 2.361 23.706 17.529 H 251 NIL_251    0.000
3590 H_7702 2.269 21.972 17.195 H 251 NIL_251    0.000
3591 H_7703 3.254 23.024 16.160 H 251 NIL_251    0.000
3592 H_7691 4.732 23.541 18.137 H 251 NIL_251    0.000
3593 H_7692 3.814 22.380 19.114 H 251 NIL_251    0.000
3594 C_660 17.277 19.010 18.101 C.3 252 NIL_252    0.000
3595 C_662 18.174 20.035 17.380 C.3 252 NIL_252    0.000
3596 H_6621 18.282 19.778 16.323 H 252 NIL_252    0.000
3597 H_6622 19.167 20.047 17.835 H 252 NIL_252    0.000
3598 H_6623 17.760 21.043 17.454 H 252 NIL_252    0.000
3599 H_6601 17.779 18.040 18.095 H 252 NIL_252    0.000
3600 H_6602 17.147 19.321 19.142 H 252 NIL_252    0.000
3601 C_1479 -8.023 -11.280 1.204 C.3 253 NIL_253    0.000
3602 C_1478 -9.492 -11.085 0.759 C.3 253 NIL_253    0.000
3603 C_3530 -7.520 -12.726 1.050 C.3 253 NIL_253    0.000
3604 H_35301 -8.131 -13.419 1.633 H 253 NIL_253    0.000
3605 H_35302 -6.490 -12.797 1.408 H 253 NIL_253    0.000
3606 H_35303 -7.535 -13.032 0.002 H 253 NIL_253    0.000
3607 H_14781 -9.711 -10.013 0.779 H 253 NIL_253    0.000
3608 H_14782 -9.584 -11.388 -0.281 H 253 NIL_253    0.000
3609 H_14791 -7.897 -10.973 2.244 H 253 NIL_253    0.000
3610 H_14792 -7.388 -10.623 0.605 H 253 NIL_253    0.000
3611 C_1303 -11.172 -11.136 -9.175 C.3 254 NIL_254    0.000
3612 C_1302 -11.896 -11.644 -10.426 C.3 254 NIL_254    0.000
3613 C_1304 -10.607 -12.409 -8.486 C.3 254 NIL_254    0.000
3614 N -11.137 -12.807 -10.829 N.am 254 NIL_254    0.000
3615 C_1307 -12.101 -10.574 -11.471 C.2 254 NIL_254    0.000
3616 C_1305 -10.747 -13.497 -9.602 C.3 254 NIL_254    0.000
3617 N -9.194 -12.128 -8.050 N.am 254 NIL_254    0.000
3618 C_1316 -11.533 -12.767 -7.312 C.2 254 NIL_254    0.000
3619 O -12.700 -9.558 -11.164 O.2 254 NIL_254    0.000
3620 O -12.566 -13.399 -7.437 O.2 254 NIL_254    0.000
3621 H_13051 -9.831 -14.056 -9.755 H 254 NIL_254    0.000
3622 H_13052 -11.532 -14.222 -9.376 H 254 NIL_254    0.000
3623 H_1302 -12.895 -11.994 -10.147 H 254 NIL_254    0.000
3624 H_13031 -10.359 -10.474 -9.491 H 254 NIL_254    0.000
3625 H_13032 -11.835 -10.561 -8.524 H 254 NIL_254    0.000
3626 O -13.810 -21.870 1.057 O.2 255 NIL_255    0.000
3627 C_2478 -12.655 -22.128 1.339 C.2 255 NIL_255    0.000
3628 C_2474 -11.539 -22.332 0.296 C.3 255 NIL_255    0.000
3629 C_2473 -10.835 -20.958 0.129 C.3 255 NIL_255    0.000
3630 C_2475 -12.166 -22.479 -1.139 C.3 255 NIL_255    0.000
3631 N -10.581 -23.397 0.775 N.am 255 NIL_255    0.000
3632 C_2472 -11.843 -20.179 -0.727 C.3 255 NIL_255    0.000
3633 N -12.297 -21.128 -1.721 N.am 255 NIL_255    0.000
3634 C_2477 -11.445 -18.822 -1.245 C.2 255 NIL_255    0.000
3635 O -10.651 -18.114 -0.655 O.2 255 NIL_255    0.000
3636 H_2472 -12.711 -19.949 -0.107 H 255 NIL_255    0.000
3637 H_24751 -11.536 -23.050 -1.820 H 255 NIL_255    0.000
3638 H_24752 -13.147 -22.963 -1.092 H 255 NIL_255    0.000
3639 H_24731 -9.886 -21.064 -0.404 H 255 NIL_255    0.000
3640 H_24732 -10.655 -20.453 1.076 H 255 NIL_255    0.000
3641 O -7.024 -18.467 -2.874 O.2 256 NIL_256    0.000
3642 C_2958 -5.835 -18.256 -2.722 C.2 256 NIL_256    0.000
3643 C_2946 -4.774 -18.691 -3.754 C.3 256 NIL_256    0.000
3644 C_2945 -5.176 -20.067 -4.381 C.3 256 NIL_256    0.000
3645 C_2947 -4.924 -17.725 -4.960 C.3 256 NIL_256    0.000
3646 N -3.357 -18.650 -3.225 N.am 256 NIL_256    0.000
3647 C_2944 -4.888 -19.928 -5.887 C.3 256 NIL_256    0.000
3648 N -5.072 -18.522 -6.186 N.am 256 NIL_256    0.000
3649 C_2949 -5.655 -20.856 -6.809 C.2 256 NIL_256    0.000
3650 O -5.990 -21.963 -6.430 O.2 256 NIL_256    0.000
3651 H_2944 -3.840 -20.154 -6.089 H 256 NIL_256    0.000
3652 H_29471 -5.818 -17.104 -4.853 H 256 NIL_256    0.000
3653 H_29472 -4.058 -17.063 -5.046 H 256 NIL_256    0.000
3654 H_29451 -6.244 -20.264 -4.267 H 256 NIL_256    0.000
3655 H_29452 -4.651 -20.910 -3.930 H 256 NIL_256    0.000
3656 C_2849 -4.936 -16.935 5.570 C.3 257 NIL_257    0.000
3657 C_2848 -4.809 -18.386 4.997 C.3 257 NIL_257    0.000
3658 C_2850 -4.976 -16.035 4.306 C.3 257 NIL_257    0.000
3659 N -3.800 -16.523 6.462 N.am 257 NIL_257    0.000
3660 C_2855 -6.313 -16.780 6.222 C.2 257 NIL_257    0.000
3661 C_2847 -4.556 -18.218 3.488 C.3 257 NIL_257    0.000
3662 N -5.074 -16.908 3.136 N.am 257 NIL_257    0.000
3663 O -7.332 -17.232 5.736 O.2 257 NIL_257    0.000
3664 C_2852 -5.089 -19.337 2.614 C.2 257 NIL_257    0.000
3665 O -5.140 -20.480 3.028 O.2 257 NIL_257    0.000
3666 H_2847 -3.478 -18.189 3.307 H 257 NIL_257    0.000
3667 H_28501 -5.827 -15.348 4.330 H 257 NIL_257    0.000
3668 H_28502 -4.056 -15.450 4.220 H 257 NIL_257    0.000
3669 H_28481 -5.724 -18.961 5.152 H 257 NIL_257    0.000
3670 H_28482 -4.012 -18.969 5.453 H 257 NIL_257    0.000
3671 C_3654 -5.386 -13.911 -16.312 C.2 258 NIL_258    0.000
3672 C_3652 -5.126 -15.213 -16.178 C.2 258 NIL_258    0.000
3673 C_3656 -6.147 -13.469 -17.310 C.2 258 NIL_258    0.000
3674 C_3574 -5.626 -16.113 -17.034 C.2 258 NIL_258    0.000
3675 C_3658 -6.610 -14.348 -18.203 C.2 258 NIL_258    0.000
3676 C_3668 -6.570 -12.015 -17.365 C.3 258 NIL_258    0.000
3677 C_2831 -5.454 -17.532 -16.890 C.2 258 NIL_258    0.000
3678 C_3660 -6.355 -15.649 -18.065 C.2 258 NIL_258    0.000
3679 NH -7.806 -11.675 -16.623 N.am 258 NIL_258    0.000
3680 O -5.417 -18.159 -17.933 O.2 258 NIL_258    0.000
3681 C_1297 -8.710 -12.535 -16.080 C.2 258 NIL_258    0.000
3682 C_1292 -9.916 -11.883 -15.424 C.3 258 NIL_258    0.000
3683 O -8.583 -13.745 -16.063 O.2 258 NIL_258    0.000
3684 N -11.164 -12.679 -15.551 N.am 258 NIL_258    0.000
3685 C_1293 -9.617 -11.719 -13.920 C.3 258 NIL_258    0.000
3686 C_1295 -11.757 -12.834 -14.215 C.3 258 NIL_258    0.000
3687 C_1294 -10.933 -12.041 -13.174 C.3 258 NIL_258    0.000
3688 N -11.636 -10.783 -12.735 N.am 258 NIL_258    0.000
3689 C_1306 -10.632 -13.050 -12.056 C.2 258 NIL_258    0.000
3690 C_3544 -12.021 -9.826 -13.819 C.3 258 NIL_258    0.000
3691 O -9.971 -14.054 -12.254 O.2 258 NIL_258    0.000
3692 C_3546 -11.079 -8.619 -14.071 C.3 258 NIL_258    0.000
3693 C_3548 -10.845 -7.724 -12.838 C.3 258 NIL_258    0.000
3694 H_35481 -10.362 -8.283 -12.035 H 258 NIL_258    0.000
3695 H_35482 -11.790 -7.313 -12.472 H 258 NIL_258    0.000
3696 H_35483 -10.192 -6.888 -13.101 H 258 NIL_258    0.000
3697 H_35461 -11.526 -8.005 -14.857 H 258 NIL_258    0.000
3698 H_35462 -10.119 -8.948 -14.463 H 258 NIL_258    0.000
3699 H_35441 -13.015 -9.430 -13.591 H 258 NIL_258    0.000
3700 H_35442 -12.133 -10.356 -14.765 H 258 NIL_258    0.000
3701 H_12951 -11.778 -13.901 -13.976 H 258 NIL_258    0.000
3702 H_12952 -12.781 -12.457 -14.208 H 258 NIL_258    0.000
3703 H_12931 -8.825 -12.416 -13.635 H 258 NIL_258    0.000
3704 H_12932 -9.229 -10.731 -13.674 H 258 NIL_258    0.000
3705 H_1292 -10.075 -10.905 -15.889 H 258 NIL_258    0.000
3706 H_3660 -6.798 -16.330 -18.788 H 258 NIL_258    0.000
3707 H_36681 -5.767 -11.391 -16.964 H 258 NIL_258    0.000
3708 H_36682 -6.713 -11.716 -18.408 H 258 NIL_258    0.000
3709 H_3658 -7.244 -14.011 -19.020 H 258 NIL_258    0.000
3710 H_3652 -4.492 -15.492 -15.355 H 258 NIL_258    0.000
3711 H_3654 -4.994 -13.211 -15.577 H 258 NIL_258    0.000
3712 HH -8.006 -10.689 -16.546 H 258 NIL_258    0.000
3713 N -13.673 -18.960 -5.566 N.am 259 NIL_259    0.000
3714 C_2462 -12.339 -18.406 -5.682 C.3 259 NIL_259    0.000
3715 C_2465 -13.929 -19.034 -4.116 C.3 259 NIL_259    0.000
3716 C_2463 -11.546 -19.185 -4.620 C.3 259 NIL_259    0.000
3717 C_2467 -11.727 -18.395 -7.064 C.2 259 NIL_259    0.000
3718 C_2464 -12.553 -19.345 -3.437 C.3 259 NIL_259    0.000
3719 O -10.599 -17.969 -7.220 O.2 259 NIL_259    0.000
3720 N -12.136 -18.405 -2.339 N.am 259 NIL_259    0.000
3721 C_2476 -12.612 -20.827 -3.004 C.2 259 NIL_259    0.000
3722 O -12.941 -21.709 -3.773 O.2 259 NIL_259    0.000
3723 H_24631 -11.253 -20.156 -5.029 H 259 NIL_259    0.000
3724 H_24632 -10.635 -18.656 -4.333 H 259 NIL_259    0.000
3725 H_24651 -14.669 -19.805 -3.885 H 259 NIL_259    0.000
3726 H_24652 -14.348 -18.079 -3.798 H 259 NIL_259    0.000
3727 H_2462 -12.397 -17.352 -5.402 H 259 NIL_259    0.000
3728 O -14.184 -22.844 -16.346 O.2 260 NIL_260    0.000
3729 C_2349 -13.346 -22.431 -15.567 C.2 260 NIL_260    0.000
3730 C_2378 -11.960 -22.448 -15.919 C.2 260 NIL_260    0.000
3731 C_3627 -11.543 -23.100 -17.012 C.2 260 NIL_260    0.000
3732 C_3635 -11.049 -21.782 -15.194 C.2 260 NIL_260    0.000
3733 C_3629 -10.260 -23.066 -17.375 C.2 260 NIL_260    0.000
3734 C_3633 -9.771 -21.743 -15.566 C.2 260 NIL_260    0.000
3735 C_3631 -9.360 -22.378 -16.667 C.2 260 NIL_260    0.000
3736 C_3643 -7.922 -22.331 -17.155 C.3 260 NIL_260    0.000
3737 NH -6.926 -21.590 -16.373 N.am 260 NIL_260    0.000
3738 C_2832 -6.843 -20.242 -16.327 C.2 260 NIL_260    0.000
3739 C_2827 -5.593 -19.714 -15.634 C.3 260 NIL_260    0.000
3740 O -7.710 -19.527 -16.794 O.2 260 NIL_260    0.000
3741 N -5.393 -18.245 -15.717 N.am 260 NIL_260    0.000
3742 C_2828 -5.591 -20.127 -14.144 C.3 260 NIL_260    0.000
3743 C_2830 -5.336 -17.727 -14.339 C.3 260 NIL_260    0.000
3744 C_2829 -5.112 -18.890 -13.343 C.3 260 NIL_260    0.000
3745 N -3.658 -19.012 -12.938 N.am 260 NIL_260    0.000
3746 C_2841 -6.091 -18.663 -12.175 C.2 260 NIL_260    0.000
3747 C_3522 -2.696 -19.460 -13.991 C.3 260 NIL_260    0.000
3748 O -7.297 -18.616 -12.340 O.2 260 NIL_260    0.000
3749 C_3524 -1.516 -18.509 -14.316 C.3 260 NIL_260    0.000
3750 C_3526 -1.942 -17.174 -14.950 C.3 260 NIL_260    0.000
3751 H_35261 -2.591 -17.341 -15.812 H 260 NIL_260    0.000
3752 H_35262 -1.063 -16.623 -15.291 H 260 NIL_260    0.000
3753 H_35263 -2.460 -16.548 -14.223 H 260 NIL_260    0.000
3754 H_35241 -0.859 -19.022 -15.023 H 260 NIL_260    0.000
3755 H_35242 -0.919 -18.309 -13.424 H 260 NIL_260    0.000
3756 H_35221 -3.196 -19.651 -14.933 H 260 NIL_260    0.000
3757 H_35222 -2.274 -20.415 -13.662 H 260 NIL_260    0.000
3758 H_28301 -6.277 -17.204 -14.146 H 260 NIL_260    0.000
3759 H_28302 -4.519 -17.032 -14.200 H 260 NIL_260    0.000
3760 H_28281 -6.601 -20.423 -13.850 H 260 NIL_260    0.000
3761 H_28282 -4.956 -21.000 -13.970 H 260 NIL_260    0.000
3762 H_2827 -4.750 -20.196 -16.139 H 260 NIL_260    0.000
3763 H_36431 -7.555 -23.357 -17.246 H 260 NIL_260    0.000
3764 H_36432 -7.919 -21.900 -18.161 H 260 NIL_260    0.000
3765 H_3633 -9.077 -21.168 -14.958 H 260 NIL_260    0.000
3766 H_3629 -9.951 -23.598 -18.273 H 260 NIL_260    0.000
3767 H_3635 -11.326 -21.222 -14.305 H 260 NIL_260    0.000
3768 H_3627 -12.240 -23.662 -17.631 H 260 NIL_260    0.000
3769 HH -6.223 -22.134 -15.896 H 260 NIL_260    0.000
3770 C_2373 -12.966 -23.172 6.056 C.2 261 NIL_261    0.000
3771 C_2367 -12.245 -22.230 5.080 C.3 261 NIL_261    0.000
3772 O -13.359 -24.275 5.725 O.2 261 NIL_261    0.000
3773 C_2366 -11.000 -22.982 4.529 C.3 261 NIL_261    0.000
3774 C_2368 -13.138 -22.087 3.812 C.3 261 NIL_261    0.000
3775 N -11.899 -20.883 5.666 N.am 261 NIL_261    0.000
3776 C_2365 -10.917 -22.572 3.048 C.3 261 NIL_261    0.000
3777 N -12.279 -22.258 2.631 N.am 261 NIL_261    0.000
3778 C_2370 -10.245 -23.537 2.093 C.2 261 NIL_261    0.000
3779 O -9.483 -24.398 2.491 O.2 261 NIL_261    0.000
3780 H_2365 -10.333 -21.657 2.969 H 261 NIL_261    0.000
3781 H_23681 -13.909 -22.861 3.777 H 261 NIL_261    0.000
3782 H_23682 -13.628 -21.111 3.783 H 261 NIL_261    0.000
3783 H_23661 -11.139 -24.065 4.581 H 261 NIL_261    0.000
3784 H_23662 -10.090 -22.748 5.084 H 261 NIL_261    0.000
3785 C_137 -8.781 -22.208 18.121 C.2 262 NIL_262    0.000
3786 C_110 -9.806 -22.672 17.075 C.3 262 NIL_262    0.000
3787 O -8.915 -22.412 19.314 O.2 262 NIL_262    0.000
3788 C_109 -11.081 -21.810 17.246 C.3 262 NIL_262    0.000
3789 C_111 -10.266 -24.108 17.477 C.3 262 NIL_262    0.000
3790 N -9.317 -22.582 15.652 N.am 262 NIL_262    0.000
3791 C_108 -12.148 -22.727 17.873 C.3 262 NIL_262    0.000
3792 N -11.743 -24.085 17.466 N.3 262 NIL_262    0.000
3793 C_113 -13.530 -22.282 17.439 C.2 262 NIL_262    0.000
3794 O -14.203 -22.887 16.626 O.2 262 NIL_262    0.000
3795 H_108 -12.089 -22.643 18.962 H 262 NIL_262    0.000
3796 H_1111 -9.876 -24.869 16.797 H 262 NIL_262    0.000
3797 H_1112 -9.934 -24.367 18.485 H 262 NIL_262    0.000
3798 H_1091 -11.431 -21.452 16.275 H 262 NIL_262    0.000
3799 H_1092 -10.909 -20.928 17.870 H 262 NIL_262    0.000
3800 O -11.918 -19.385 7.345 O.2 263 NIL_263    0.000
3801 C_2372 -12.157 -20.513 6.952 C.2 263 NIL_263    0.000
3802 C_2376 -12.767 -21.513 7.921 C.3 263 NIL_263    0.000
3803 NH -13.195 -22.773 7.321 N.am 263 NIL_263    0.000
3804 C_2388 -11.790 -21.746 9.100 C.3 263 NIL_263    0.000
3805 C_2396 -12.460 -22.409 10.325 C.3 263 NIL_263    0.000
3806 N -11.573 -22.272 11.485 N.3 263 NIL_263    0.000
3807 N -11.691 -21.184 12.291 N.2 263 NIL_263    0.000
3808 N -11.118 -21.445 13.417 N.2 263 NIL_263    0.000
3809 H_23961 -13.416 -21.921 10.539 H 263 NIL_263    0.000
3810 H_23962 -12.649 -23.468 10.121 H 263 NIL_263    0.000
3811 H_23881 -11.382 -20.784 9.420 H 263 NIL_263    0.000
3812 H_23882 -10.946 -22.354 8.765 H 263 NIL_263    0.000
3813 H_2376 -13.667 -21.025 8.305 H 263 NIL_263    0.000
3814 HH -13.693 -23.408 7.929 H 263 NIL_263    0.000
3815 C_1312 -11.875 -11.846 3.662 C.3 264 NIL_264    0.000
3816 N -12.122 -13.237 3.313 N.am 264 NIL_264    0.000
3817 C_1313 -11.684 -11.814 5.187 C.3 264 NIL_264    0.000
3818 C_1317 -10.752 -11.219 2.864 C.2 264 NIL_264    0.000
3819 C_1315 -12.540 -13.986 4.504 C.3 264 NIL_264    0.000
3820 C_1314 -12.499 -13.030 5.725 C.3 264 NIL_264    0.000
3821 O -10.121 -10.282 3.317 O.2 264 NIL_264    0.000
3822 N -13.899 -12.682 6.177 N.am 264 NIL_264    0.000
3823 C_1320 -11.667 -13.742 6.802 C.2 264 NIL_264    0.000
3824 O -10.463 -13.899 6.725 O.2 264 NIL_264    0.000
3825 H_13151 -11.841 -14.818 4.639 H 264 NIL_264    0.000
3826 H_13152 -13.541 -14.399 4.360 H 264 NIL_264    0.000
3827 H_13131 -10.617 -11.924 5.387 H 264 NIL_264    0.000
3828 H_13132 -11.984 -10.862 5.632 H 264 NIL_264    0.000
3829 H_1312 -12.770 -11.284 3.387 H 264 NIL_264    0.000
3830 C_3520 -6.548 -23.049 -10.863 C.3 265 NIL_265    0.000
3831 C_3007 -5.738 -22.075 -9.988 C.3 265 NIL_265    0.000
3832 C_3006 -6.655 -21.284 -9.030 C.3 265 NIL_265    0.000
3833 H_30061 -7.391 -20.742 -9.619 H 265 NIL_265    0.000
3834 H_30062 -7.241 -22.010 -8.460 H 265 NIL_265    0.000
3835 H_30071 -5.000 -22.637 -9.410 H 265 NIL_265    0.000
3836 H_30072 -5.203 -21.395 -10.652 H 265 NIL_265    0.000
3837 H_35201 -7.252 -22.504 -11.497 H 265 NIL_265    0.000
3838 H_35202 -7.108 -23.755 -10.246 H 265 NIL_265    0.000
3839 H_35203 -5.876 -23.616 -11.511 H 265 NIL_265    0.000
3840 C_2878 -4.827 -14.145 10.249 C.3 266 NIL_266    0.000
3841 N -5.284 -14.063 11.642 N.3 266 NIL_266    0.000
3842 C_2870 -5.529 -15.306 9.505 C.3 266 NIL_266    0.000
3843 N -4.468 -13.433 12.531 N.2 266 NIL_266    0.000
3844 C_2858 -5.342 -15.287 7.969 C.3 266 NIL_266    0.000
3845 N -4.697 -13.890 13.714 N.2 266 NIL_266    0.000
3846 C_2854 -3.938 -15.670 7.517 C.2 266 NIL_266    0.000
3847 NH -6.404 -16.091 7.370 N.am 266 NIL_266    0.000
3848 O -2.961 -15.224 8.088 O.2 266 NIL_266    0.000
3849 H_2858 -5.498 -14.265 7.612 H 266 NIL_266    0.000
3850 H_28701 -5.192 -16.267 9.904 H 266 NIL_266    0.000
3851 H_28702 -6.600 -15.228 9.707 H 266 NIL_266    0.000
3852 H_28781 -3.744 -14.289 10.236 H 266 NIL_266    0.000
3853 H_28782 -5.061 -13.201 9.749 H 266 NIL_266    0.000
3854 HH -7.305 -16.040 7.821 H 266 NIL_266    0.000
3855 O -3.747 -18.464 16.745 O.2 267 NIL_267    0.000
3856 C_262 -4.661 -18.209 17.507 C.2 267 NIL_267    0.000
3857 C_257 -4.914 -16.813 18.058 C.3 267 NIL_267    0.000
3858 N -4.054 -15.769 17.461 N.3 267 NIL_267    0.000
3859 C_258 -6.376 -16.350 17.838 C.3 267 NIL_267    0.000
3860 C_260 -4.829 -14.522 17.347 C.3 267 NIL_267    0.000
3861 C_259 -6.328 -14.920 17.245 C.3 267 NIL_267    0.000
3862 N -6.830 -14.938 15.824 N.am 267 NIL_267    0.000
3863 C_271 -7.107 -13.975 18.175 C.2 267 NIL_267    0.000
3864 O -6.734 -13.702 19.301 O.2 267 NIL_267    0.000
3865 H_2601 -4.507 -13.933 16.485 H 267 NIL_267    0.000
3866 H_2602 -4.642 -13.933 18.248 H 267 NIL_267    0.000
3867 H_2581 -6.917 -17.024 17.168 H 267 NIL_267    0.000
3868 H_2582 -6.906 -16.372 18.793 H 267 NIL_267    0.000
3869 H_257 -4.736 -16.856 19.137 H 267 NIL_267    0.000
3870 C_2528 -10.080 -24.359 -0.232 C.3 268 NIL_268    0.000
3871 C_2529 -11.083 -25.503 -0.523 C.3 268 NIL_268    0.000
3872 C_3502 -10.873 -26.715 0.406 C.3 268 NIL_268    0.000
3873 H_35021 -9.865 -27.121 0.292 H 268 NIL_268    0.000
3874 H_35022 -11.586 -27.504 0.152 H 268 NIL_268    0.000
3875 H_35023 -11.023 -26.446 1.453 H 268 NIL_268    0.000
3876 H_25291 -10.966 -25.828 -1.560 H 268 NIL_268    0.000
3877 H_25292 -12.110 -25.147 -0.419 H 268 NIL_268    0.000
3878 H_25281 -9.138 -24.794 0.110 H 268 NIL_268    0.000
3879 H_25282 -9.834 -23.825 -1.150 H 268 NIL_268    0.000
3880 C_726 -13.325 -14.736 18.303 C.3 269 NIL_269    0.000
3881 C_725 -13.652 -13.221 18.239 C.3 269 NIL_269    0.000
3882 C_727 -14.434 -15.493 17.528 C.3 269 NIL_269    0.000
3883 N -14.980 -13.118 17.601 N.3 269 NIL_269    0.000
3884 C_729 -12.588 -12.410 17.510 C.2 269 NIL_269    0.000
3885 C_728 -15.591 -14.455 17.475 C.3 269 NIL_269    0.000
3886 N -13.921 -15.899 16.166 N.am 269 NIL_269    0.000
3887 C_738 -14.918 -16.672 18.396 C.2 269 NIL_269    0.000
3888 O -12.847 -11.675 16.575 O.2 269 NIL_269    0.000
3889 O -15.517 -16.511 19.444 O.2 269 NIL_269    0.000
3890 H_7281 -16.166 -14.541 16.549 H 269 NIL_269    0.000
3891 H_7282 -16.275 -14.585 18.317 H 269 NIL_269    0.000
3892 H_725 -13.698 -12.836 19.263 H 269 NIL_269    0.000
3893 H_7261 -12.336 -14.978 17.907 H 269 NIL_269    0.000
3894 H_7262 -13.320 -15.032 19.356 H 269 NIL_269    0.000
3895 N -5.580 -18.521 -10.934 N.am 270 NIL_270    0.000
3896 C_2935 -4.178 -18.461 -10.587 C.3 270 NIL_270    0.000
3897 C_2938 -6.332 -18.409 -9.683 C.3 270 NIL_270    0.000
3898 C_2936 -4.058 -19.198 -9.244 C.3 270 NIL_270    0.000
3899 C_2939 -3.217 -18.935 -11.650 C.2 270 NIL_270    0.000
3900 C_2937 -5.448 -19.051 -8.561 C.3 270 NIL_270    0.000
3901 O -2.077 -19.229 -11.339 O.2 270 NIL_270    0.000
3902 N -5.935 -20.395 -8.065 N.am 270 NIL_270    0.000
3903 C_2948 -5.230 -18.031 -7.430 C.2 270 NIL_270    0.000
3904 O -5.151 -16.833 -7.616 O.2 270 NIL_270    0.000
3905 H_29361 -3.802 -20.246 -9.404 H 270 NIL_270    0.000
3906 H_29362 -3.250 -18.770 -8.645 H 270 NIL_270    0.000
3907 H_29381 -7.327 -18.841 -9.764 H 270 NIL_270    0.000
3908 H_29382 -6.484 -17.345 -9.507 H 270 NIL_270    0.000
3909 H_2935 -3.942 -17.405 -10.428 H 270 NIL_270    0.000
3910 N -13.847 -15.569 11.660 N.3 271 NIL_271    0.000
3911 C_1343 -13.511 -15.579 10.238 C.3 271 NIL_271    0.000
3912 N -15.130 -15.695 12.087 N.2 271 NIL_271    0.000
3913 C_1335 -14.146 -14.372 9.516 C.3 271 NIL_271    0.000
3914 N -15.149 -15.438 13.350 N.2 271 NIL_271    0.000
3915 C_1323 -13.748 -14.334 8.022 C.3 271 NIL_271    0.000
3916 C_1319 -14.513 -13.279 7.241 C.2 271 NIL_271    0.000
3917 NH -12.302 -14.230 7.879 N.am 271 NIL_271    0.000
3918 O -15.647 -12.980 7.571 O.2 271 NIL_271    0.000
3919 H_1323 -14.037 -15.285 7.566 H 271 NIL_271    0.000
3920 H_13351 -15.232 -14.449 9.603 H 271 NIL_271    0.000
3921 H_13352 -13.839 -13.441 10.001 H 271 NIL_271    0.000
3922 H_13431 -13.874 -16.506 9.788 H 271 NIL_271    0.000
3923 H_13432 -12.423 -15.546 10.138 H 271 NIL_271    0.000
3924 HH -11.750 -14.670 8.600 H 271 NIL_271    0.000
3925 C_2299 -13.611 -14.788 15.220 C.3 272 NIL_272    0.000
3926 C_309 -13.990 -15.083 13.787 C.2 272 NIL_272    0.000
3927 C_310 -13.194 -15.134 12.740 C.2 272 NIL_272    0.000
3928 H_310 -12.127 -14.937 12.711 H 272 NIL_272    0.000
3929 H_22991 -12.536 -14.597 15.274 H 272 NIL_272    0.000
3930 H_22992 -14.115 -13.865 15.486 H 272 NIL_272    0.000
3931 C_1471 -8.157 -12.127 -9.117 C.3 273 NIL_273    0.000
3932 C_1472 -7.023 -13.152 -8.898 C.3 273 NIL_273    0.000
3933 C_3542 -7.498 -14.612 -8.963 C.3 273 NIL_273    0.000
3934 H_35421 -8.313 -14.800 -8.256 H 273 NIL_273    0.000
3935 H_35422 -6.676 -15.268 -8.700 H 273 NIL_273    0.000
3936 H_35423 -7.822 -14.873 -9.973 H 273 NIL_273    0.000
3937 H_14721 -6.542 -12.980 -7.933 H 273 NIL_273    0.000
3938 H_14722 -6.258 -12.997 -9.661 H 273 NIL_273    0.000
3939 H_14711 -7.711 -11.128 -9.140 H 273 NIL_273    0.000
3940 H_14712 -8.595 -12.283 -10.102 H 273 NIL_273    0.000
3941 C_2356 -14.850 -19.571 -8.902 C.3 274 NIL_274    0.000
3942 C_2355 -15.136 -21.011 -9.360 C.3 274 NIL_274    0.000
3943 C_2357 -13.643 -19.759 -7.919 C.3 274 NIL_274    0.000
3944 N -13.812 -21.579 -9.514 N.am 274 NIL_274    0.000
3945 C_2360 -16.074 -21.176 -10.533 C.2 274 NIL_274    0.000
3946 C_2358 -13.131 -21.194 -8.269 C.3 274 NIL_274    0.000
3947 N -12.499 -18.807 -8.105 N.am 274 NIL_274    0.000
3948 C_2369 -14.233 -19.767 -6.497 C.2 274 NIL_274    0.000
3949 O -17.244 -20.887 -10.388 O.2 274 NIL_274    0.000
3950 O -15.187 -20.467 -6.204 O.2 274 NIL_274    0.000
3951 H_23581 -12.044 -21.222 -8.382 H 274 NIL_274    0.000
3952 H_23582 -13.410 -21.909 -7.487 H 274 NIL_274    0.000
3953 H_2355 -15.623 -21.554 -8.542 H 274 NIL_274    0.000
3954 H_23561 -14.600 -18.954 -9.764 H 274 NIL_274    0.000
3955 H_23562 -15.721 -19.124 -8.421 H 274 NIL_274    0.000
3956 O -12.312 -14.886 1.830 O.2 275 NIL_275    0.000
3957 C_1428 -11.990 -13.737 2.067 C.2 275 NIL_275    0.000
3958 C_1424 -11.411 -12.779 1.012 C.3 275 NIL_275    0.000
3959 C_1423 -12.600 -12.032 0.342 C.3 275 NIL_275    0.000
3960 C_1425 -10.797 -13.587 -0.173 C.3 275 NIL_275    0.000
3961 N -10.493 -11.754 1.635 N.am 275 NIL_275    0.000
3962 C_1422 -12.464 -12.229 -1.180 C.3 275 NIL_275    0.000
3963 N -11.217 -12.929 -1.412 N.am 275 NIL_275    0.000
3964 C_1427 -12.624 -10.972 -2.006 C.2 275 NIL_275    0.000
3965 O -13.409 -10.107 -1.661 O.2 275 NIL_275    0.000
3966 H_1422 -13.265 -12.893 -1.514 H 275 NIL_275    0.000
3967 H_14251 -9.711 -13.640 -0.112 H 275 NIL_275    0.000
3968 H_14252 -11.180 -14.607 -0.215 H 275 NIL_275    0.000
3969 H_14231 -12.597 -10.972 0.612 H 275 NIL_275    0.000
3970 H_14232 -13.562 -12.440 0.667 H 275 NIL_275    0.000
3971 N -15.570 -21.746 -11.665 N.am 276 NIL_276    0.000
3972 C_2347 -14.095 -21.637 -11.977 C.3 276 NIL_276    0.000
3973 C_3508 -16.413 -22.623 -12.545 C.3 276 NIL_276    0.000
3974 C_2346 -13.888 -20.275 -12.693 C.3 276 NIL_276    0.000
3975 C_2348 -13.526 -22.582 -13.080 C.3 276 NIL_276    0.000
3976 C_2359 -13.207 -21.723 -10.720 C.2 276 NIL_276    0.000
3977 C_3510 -17.842 -22.153 -12.927 C.3 276 NIL_276    0.000
3978 C_2345 -14.276 -20.574 -14.153 C.3 276 NIL_276    0.000
3979 N -13.736 -21.921 -14.379 N.am 276 NIL_276    0.000
3980 O -12.001 -21.879 -10.784 O.2 276 NIL_276    0.000
3981 C_3512 -17.880 -20.786 -13.639 C.3 276 NIL_276    0.000
3982 C_2350 -13.898 -19.492 -15.163 C.2 276 NIL_276    0.000
3983 O -12.773 -19.337 -15.597 O.2 276 NIL_276    0.000
3984 NH -14.935 -18.716 -15.564 N.am 276 NIL_276    0.000
3985 C_3705 -14.939 -17.859 -16.763 C.3 276 NIL_276    0.000
3986 C_3693 -14.055 -16.628 -16.747 C.2 276 NIL_276    0.000
3987 C_3691 -14.371 -15.564 -16.006 C.2 276 NIL_276    0.000
3988 C_3695 -12.953 -16.576 -17.499 C.2 276 NIL_276    0.000
3989 C_3689 -13.586 -14.486 -15.990 C.2 276 NIL_276    0.000
3990 C_3697 -12.171 -15.497 -17.489 C.2 276 NIL_276    0.000
3991 C_3585 -12.461 -14.439 -16.719 C.2 276 NIL_276    0.000
3992 C_1296 -11.544 -13.340 -16.689 C.2 276 NIL_276    0.000
3993 O -11.018 -13.049 -17.748 O.2 276 NIL_276    0.000
3994 H_3697 -11.271 -15.507 -18.101 H 276 NIL_276    0.000
3995 H_3689 -13.905 -13.645 -15.387 H 276 NIL_276    0.000
3996 H_3695 -12.680 -17.425 -18.121 H 276 NIL_276    0.000
3997 H_3691 -15.278 -15.573 -15.404 H 276 NIL_276    0.000
3998 H_37051 -15.971 -17.539 -16.931 H 276 NIL_276    0.000
3999 H_37052 -14.663 -18.485 -17.617 H 276 NIL_276    0.000
4000 H_35121 -18.912 -20.454 -13.760 H 276 NIL_276    0.000
4001 H_35122 -17.439 -20.862 -14.635 H 276 NIL_276    0.000
4002 H_35123 -17.343 -20.022 -13.070 H 276 NIL_276    0.000
4003 H_2345 -15.357 -20.663 -14.208 H 276 NIL_276    0.000
4004 H_35101 -18.490 -22.137 -12.050 H 276 NIL_276    0.000
4005 H_35102 -18.277 -22.898 -13.598 H 276 NIL_276    0.000
4006 H_23481 -12.450 -22.723 -12.963 H 276 NIL_276    0.000
4007 H_23482 -13.992 -23.570 -13.055 H 276 NIL_276    0.000
4008 H_23461 -12.834 -19.986 -12.655 H 276 NIL_276    0.000
4009 H_23462 -14.485 -19.467 -12.262 H 276 NIL_276    0.000
4010 H_35081 -16.510 -23.584 -12.031 H 276 NIL_276    0.000
4011 H_35082 -15.921 -22.830 -13.494 H 276 NIL_276    0.000
4012 HH -15.831 -18.865 -15.126 H 276 NIL_276    0.000
4013 C_737 -15.389 -19.137 18.400 C.3 277 NIL_277    0.000
4014 C.fb -15.002 -20.275 17.430 C.3 277 NIL_277    0.000
4015 N -14.697 -17.922 17.943 N.am 277 NIL_277    0.000
4016 C_735 -14.507 -19.499 16.198 C.3 277 NIL_277    0.000
4017 NH -13.914 -21.100 17.969 N.am 277 NIL_277    0.000
4018 C_734 -13.832 -18.276 16.834 C.3 277 NIL_277    0.000
4019 C_739 -13.518 -17.169 15.861 C.2 277 NIL_277    0.000
4020 O -12.902 -17.444 14.848 O.2 277 NIL_277    0.000
4021 H_734 -12.871 -18.580 17.260 H 277 NIL_277    0.000
4022 H_7351 -13.822 -20.076 15.572 H 277 NIL_277    0.000
4023 H_7352 -15.359 -19.181 15.592 H 277 NIL_277    0.000
4024 H.fb -15.865 -20.903 17.190 H 277 NIL_277    0.000
4025 H_7371 -16.467 -18.963 18.348 H 277 NIL_277    0.000
4026 H_7372 -15.107 -19.376 19.429 H 277 NIL_277    0.000
4027 HH -13.307 -20.662 18.645 H 277 NIL_277    0.000
4028 C_1417 -8.908 -11.562 -6.842 C.2 278 NIL_278    0.000
4029 C_1412 -10.063 -11.396 -5.879 C.3 278 NIL_278    0.000
4030 O -7.788 -11.190 -6.545 O.2 278 NIL_278    0.000
4031 N -11.137 -12.351 -6.091 N.am 278 NIL_278    0.000
4032 C_1413 -9.701 -11.476 -4.388 C.3 278 NIL_278    0.000
4033 C_1415 -11.746 -12.723 -4.806 C.3 278 NIL_278    0.000
4034 C_1414 -10.998 -11.970 -3.674 C.3 278 NIL_278    0.000
4035 N -11.869 -10.854 -3.137 N.am 278 NIL_278    0.000
4036 C_1426 -10.601 -13.010 -2.607 C.2 278 NIL_278    0.000
4037 O -9.757 -13.868 -2.794 O.2 278 NIL_278    0.000
4038 H_14151 -11.648 -13.805 -4.683 H 278 NIL_278    0.000
4039 H_14152 -12.810 -12.475 -4.809 H 278 NIL_278    0.000
4040 H_14131 -8.887 -12.196 -4.282 H 278 NIL_278    0.000
4041 H_14132 -9.334 -10.526 -3.996 H 278 NIL_278    0.000
4042 H_1412 -10.472 -10.412 -6.110 H 278 NIL_278    0.000
4043 C_766 -10.714 -22.666 13.475 C.2 279 NIL_279    0.000
4044 C_767 -11.042 -23.183 12.310 C.2 279 NIL_279    0.000
4045 C_2285 -10.072 -23.381 14.644 C.3 279 NIL_279    0.000
4046 H_22851 -10.882 -23.937 15.110 H 279 NIL_279    0.000
4047 H_22852 -9.376 -24.123 14.245 H 279 NIL_279    0.000
4048 H_767 -10.903 -24.208 11.986 H 279 NIL_279    0.000
4049 C_3011 -4.944 -20.818 -0.318 C.3 280 NIL_280    0.000
4050 C_3010 -6.038 -20.061 0.460 C.3 280 NIL_280    0.000
4051 C_3516 -5.550 -21.912 -1.212 C.3 280 NIL_280    0.000
4052 H_35161 -6.082 -22.651 -0.609 H 280 NIL_280    0.000
4053 H_35162 -4.760 -22.421 -1.767 H 280 NIL_280    0.000
4054 H_35163 -6.250 -21.479 -1.930 H 280 NIL_280    0.000
4055 H_30101 -6.768 -19.670 -0.244 H 280 NIL_280    0.000
4056 H_30102 -6.586 -20.783 1.072 H 280 NIL_280    0.000
4057 H_30111 -4.244 -21.274 0.385 H 280 NIL_280    0.000
4058 H_30112 -4.374 -20.130 -0.941 H 280 NIL_280    0.000
4059 C_2531 -9.812 -19.691 4.810 C.3 281 NIL_281    0.000
4060 C_2530 -11.348 -19.857 4.729 C.3 281 NIL_281    0.000
4061 C_3500 -9.277 -18.884 3.611 C.3 281 NIL_281    0.000
4062 H_35001 -8.187 -18.839 3.635 H 281 NIL_281    0.000
4063 H_35002 -9.670 -17.865 3.620 H 281 NIL_281    0.000
4064 H_35003 -9.567 -19.356 2.673 H 281 NIL_281    0.000
4065 H_25301 -11.805 -18.890 4.954 H 281 NIL_281    0.000
4066 H_25302 -11.628 -20.071 3.700 H 281 NIL_281    0.000
4067 H_25311 -9.318 -20.664 4.818 H 281 NIL_281    0.000
4068 H_25312 -9.548 -19.187 5.742 H 281 NIL_281    0.000
4069 C_2526 -12.318 -16.948 -2.563 C.3 282 NIL_282    0.000
4070 C_2527 -13.175 -16.282 -1.457 C.3 282 NIL_282    0.000
4071 C_3504 -14.543 -16.955 -1.236 C.3 282 NIL_282    0.000
4072 H_35041 -15.162 -16.874 -2.132 H 282 NIL_282    0.000
4073 H_35042 -15.065 -16.463 -0.413 H 282 NIL_282    0.000
4074 H_35043 -14.432 -18.008 -0.976 H 282 NIL_282    0.000
4075 H_25271 -13.330 -15.231 -1.704 H 282 NIL_282    0.000
4076 H_25272 -12.630 -16.310 -0.515 H 282 NIL_282    0.000
4077 H_25261 -12.794 -16.745 -3.518 H 282 NIL_282    0.000
4078 H_25262 -11.335 -16.468 -2.587 H 282 NIL_282    0.000
4079 C_188 -12.029 -26.567 17.660 C.3 283 NIL_283    0.000
4080 C_112 -12.394 -25.180 18.223 C.3 283 NIL_283    0.000
4081 H_1121 -13.479 -25.059 18.166 H 283 NIL_283    0.000
4082 H_1122 -12.098 -25.126 19.274 H 283 NIL_283    0.000
4083 H_1881 -12.576 -27.345 18.196 H 283 NIL_283    0.000
4084 H_1882 -10.961 -26.770 17.771 H 283 NIL_283    0.000
4085 H_1883 -12.287 -26.631 16.600 H 283 NIL_283    0.000
4086 C_1476 -12.015 -9.618 -3.957 C.3 284 NIL_284    0.000
4087 C_1477 -13.197 -9.678 -4.954 C.3 284 NIL_284    0.000
4088 C_3532 -13.475 -8.299 -5.578 C.3 284 NIL_284    0.000
4089 H_35321 -12.616 -7.950 -6.154 H 284 NIL_284    0.000
4090 H_35322 -13.698 -7.564 -4.800 H 284 NIL_284    0.000
4091 H_35323 -14.336 -8.356 -6.248 H 284 NIL_284    0.000
4092 H_14771 -14.099 -10.018 -4.438 H 284 NIL_284    0.000
4093 H_14772 -12.992 -10.386 -5.758 H 284 NIL_284    0.000
4094 H_14761 -11.098 -9.367 -4.486 H 284 NIL_284    0.000
4095 H_14762 -12.188 -8.779 -3.277 H 284 NIL_284    0.000
4096 C_267 -8.939 -13.875 16.505 C.3 285 NIL_285    0.000
4097 N -8.228 -13.412 17.684 N.am 285 NIL_285    0.000
4098 C_268 -9.759 -12.673 16.023 C.3 285 NIL_285    0.000
4099 C_272 -8.067 -14.508 15.447 C.2 285 NIL_285    0.000
4100 C_270 -8.900 -12.220 18.220 C.3 285 NIL_285    0.000
4101 C.fa -10.138 -11.970 17.338 C.3 285 NIL_285    0.000
4102 O -8.477 -14.627 14.307 O.2 285 NIL_285    0.000
4103 NH -11.325 -12.578 17.953 N.am 285 NIL_285    0.000
4104 H.fa -10.307 -10.899 17.186 H 285 NIL_285    0.000
4105 H_2701 -8.214 -11.371 18.145 H 285 NIL_285    0.000
4106 H_2702 -9.182 -12.372 19.266 H 285 NIL_285    0.000
4107 H_2681 -10.626 -12.979 15.432 H 285 NIL_285    0.000
4108 H_2682 -9.135 -12.011 15.416 H 285 NIL_285    0.000
4109 H_267 -9.623 -14.661 16.840 H 285 NIL_285    0.000
4110 HH -11.164 -13.210 18.722 H 285 NIL_285    0.000
4111 C_245 -5.858 -14.992 12.424 C.2 286 NIL_286    0.000
4112 C_243 -5.527 -14.871 13.690 C.2 286 NIL_286    0.000
4113 C_2292 -6.011 -15.707 14.852 C.3 286 NIL_286    0.000
4114 H_22921 -6.634 -16.519 14.466 H 286 NIL_286    0.000
4115 H_22922 -5.154 -16.184 15.321 H 286 NIL_286    0.000
4116 H_245 -6.539 -15.726 12.007 H 286 NIL_286    0.000
4117 C_3518 -0.350 -19.221 -5.616 C.3 287 NIL_287    0.000
4118 C_3009 -1.602 -18.519 -5.060 C.3 287 NIL_287    0.000
4119 C_3008 -2.297 -19.379 -3.980 C.3 287 NIL_287    0.000
4120 H_30081 -2.670 -20.296 -4.427 H 287 NIL_287    0.000
4121 H_30082 -1.535 -19.709 -3.268 H 287 NIL_287    0.000
4122 H_30091 -1.310 -17.554 -4.635 H 287 NIL_287    0.000
4123 H_30092 -2.288 -18.320 -5.884 H 287 NIL_287    0.000
4124 H_35181 0.100 -18.616 -6.404 H 287 NIL_287    0.000
4125 H_35182 -0.607 -20.196 -6.035 H 287 NIL_287    0.000
4126 H_35183 0.394 -19.365 -4.829 H 287 NIL_287    0.000
4127 O -5.781 -15.392 1.663 O.2 288 NIL_288    0.000
4128 C_2960 -5.424 -16.532 1.886 C.2 288 NIL_288    0.000
4129 C_2956 -5.312 -17.609 0.797 C.3 288 NIL_288    0.000
4130 C_2955 -3.879 -17.486 0.204 C.3 288 NIL_288    0.000
4131 C_2957 -6.205 -17.256 -0.434 C.3 288 NIL_288    0.000
4132 N -5.499 -19.001 1.356 N.am 288 NIL_288    0.000
4133 C_2954 -4.042 -17.245 -1.308 C.3 288 NIL_288    0.000
4134 N -5.411 -17.604 -1.616 N.am 288 NIL_288    0.000
4135 C_2959 -2.977 -17.933 -2.129 C.2 288 NIL_288    0.000
4136 O -1.812 -17.841 -1.790 O.2 288 NIL_288    0.000
4137 H_2954 -3.937 -16.175 -1.511 H 288 NIL_288    0.000
4138 H_29571 -7.179 -17.748 -0.412 H 288 NIL_288    0.000
4139 H_29572 -6.389 -16.181 -0.496 H 288 NIL_288    0.000
4140 H_29551 -3.302 -18.393 0.398 H 288 NIL_288    0.000
4141 H_29552 -3.322 -16.654 0.644 H 288 NIL_288    0.000
4142 C_2521 -11.981 -18.676 -9.492 C.3 289 NIL_289    0.000
4143 C_2522 -12.078 -17.244 -10.051 C.3 289 NIL_289    0.000
4144 C_3506 -11.659 -17.208 -11.532 C.3 289 NIL_289    0.000
4145 H_35061 -12.361 -17.777 -12.143 H 289 NIL_289    0.000
4146 H_35062 -10.659 -17.630 -11.664 H 289 NIL_289    0.000
4147 H_35063 -11.654 -16.181 -11.903 H 289 NIL_289    0.000
4148 H_25221 -11.427 -16.583 -9.474 H 289 NIL_289    0.000
4149 H_25222 -13.100 -16.872 -9.958 H 289 NIL_289    0.000
4150 H_25211 -12.527 -19.330 -10.167 H 289 NIL_289    0.000
4151 H_25212 -10.935 -18.996 -9.511 H 289 NIL_289    0.000
4152 C.fc -5.488 -20.565 17.518 C.3 290 NIL_290    0.000
4153 C_134 -6.051 -20.808 16.105 C.3 290 NIL_290    0.000
4154 C_136 -6.434 -21.386 18.411 C.3 290 NIL_290    0.000
4155 NH -5.537 -19.153 17.912 N.am 290 NIL_290    0.000
4156 C_133 -7.559 -20.997 16.334 C.3 290 NIL_290    0.000
4157 N -7.686 -21.569 17.666 N.am 290 NIL_290    0.000
4158 C_138 -8.282 -21.785 15.259 C.2 290 NIL_290    0.000
4159 O -7.931 -21.712 14.097 O.2 290 NIL_290    0.000
4160 H_133 -8.037 -20.013 16.366 H 290 NIL_290    0.000
4161 H_1361 -5.997 -22.370 18.602 H 290 NIL_290    0.000
4162 H_1362 -6.622 -20.880 19.363 H 290 NIL_290    0.000
4163 H_1341 -5.839 -19.986 15.417 H 290 NIL_290    0.000
4164 H_1342 -5.618 -21.726 15.697 H 290 NIL_290    0.000
4165 H.fc -4.459 -20.928 17.602 H 290 NIL_290    0.000
4166 HH -6.289 -18.880 18.526 H 290 NIL_290    0.000
4167 C_1480 -14.663 -11.677 5.374 C.3 291 NIL_291    0.000
4168 C_1481 -15.440 -12.232 4.154 C.3 291 NIL_291    0.000
4169 C_3528 -16.501 -13.286 4.528 C.3 291 NIL_291    0.000
4170 H_35281 -17.057 -13.589 3.639 H 291 NIL_291    0.000
4171 H_35282 -17.210 -12.877 5.250 H 291 NIL_291    0.000
4172 H_35283 -16.039 -14.178 4.956 H 291 NIL_291    0.000
4173 H_14811 -14.759 -12.657 3.418 H 291 NIL_291    0.000
4174 H_14812 -15.944 -11.396 3.664 H 291 NIL_291    0.000
4175 H_14801 -14.015 -10.872 5.036 H 291 NIL_291    0.000
4176 H_14802 -15.390 -11.183 6.025 H 291 NIL_291    0.000
4177 C_3013 -1.766 -17.968 6.889 C.3 292 NIL_292    0.000
4178 C_3012 -2.435 -16.894 5.997 C.3 292 NIL_292    0.000
4179 C_3514 -0.409 -18.409 6.312 C.3 292 NIL_292    0.000
4180 H_35141 0.035 -19.182 6.943 H 292 NIL_292    0.000
4181 H_35142 0.282 -17.564 6.267 H 292 NIL_292    0.000
4182 H_35143 -0.530 -18.815 5.305 H 292 NIL_292    0.000
4183 H_30121 -1.806 -15.999 5.996 H 292 NIL_292    0.000
4184 H_30122 -2.465 -17.252 4.967 H 292 NIL_292    0.000
4185 H_30131 -2.414 -18.841 6.987 H 292 NIL_292    0.000
4186 H_30132 -1.611 -17.571 7.895 H 292 NIL_292    0.000
4187 C_769 -15.848 -12.026 18.100 C.3 293 NIL_293    0.000
4188 C_770 -17.068 -11.801 17.187 C.3 293 NIL_293    0.000
4189 H_7701 -17.639 -10.935 17.529 H 293 NIL_293    0.000
4190 H_7702 -17.731 -12.669 17.195 H 293 NIL_293    0.000
4191 H_7703 -16.746 -11.617 16.160 H 293 NIL_293    0.000
4192 H_7691 -15.268 -11.100 18.137 H 293 NIL_293    0.000
4193 H_7692 -16.186 -12.261 19.114 H 293 NIL_293    0.000
4194 C_660 -2.723 -15.631 18.101 C.3 294 NIL_294    0.000
4195 C_662 -1.826 -14.606 17.380 C.3 294 NIL_294    0.000
4196 H_6621 -1.719 -14.863 16.323 H 294 NIL_294    0.000
4197 H_6622 -0.834 -14.594 17.835 H 294 NIL_294    0.000
4198 H_6623 -2.240 -13.598 17.454 H 294 NIL_294    0.000
4199 H_6601 -2.221 -16.601 18.095 H 294 NIL_294    0.000
4200 H_6602 -2.853 -15.320 19.142 H 294 NIL_294    0.000
@<TRIPOS>BOND
1 1 9 1 
2 1 10 1 
3 2 1 1 
4 2 7 1 
5 2 8 1 
6 2 361 1 
7 3 1 1 
8 4 3 1 
9 5 3 1 
10 6 3 1 
11 11 24 1 
12 11 25 1 
13 12 11 1 
14 12 23 1 
15 13 11 1 
16 13 18 1 
17 13 17 1 
18 14 12 1 
19 14 89 1 
20 15 88 1 
21 15 12 1 
22 15 19 2 
23 16 14 1 
24 16 13 1 
25 16 21 1 
26 16 22 1 
27 17 331 1 
28 20 18 2 
29 26 27 2 
30 27 177 1 
31 28 27 1 
32 29 28 1 
33 29 39 1 
34 29 40 1 
35 30 28 1 
36 30 37 1 
37 30 38 1 
38 31 28 1 
39 31 178 1 
40 31 270 1 
41 32 29 1 
42 33 30 1 
43 33 32 1 
44 33 121 1 
45 34 32 1 
46 34 120 1 
47 35 34 2 
48 36 32 1 
49 42 41 2 
50 43 42 1 
51 44 43 1 
52 44 47 1 
53 44 54 1 
54 44 55 1 
55 45 43 1 
56 45 48 1 
57 45 52 1 
58 45 53 1 
59 46 43 1 
60 48 47 1 
61 48 303 1 
62 49 302 1 
63 49 47 1 
64 50 49 2 
65 51 47 1 
66 56 57 1 
67 56 60 1 
68 56 58 1 
69 56 59 1 
70 57 69 1 
71 57 70 1 
72 58 67 1 
73 58 68 1 
74 59 246 1 
75 60 247 1 
76 61 57 1 
77 62 61 1 
78 62 58 1 
79 63 60 2 
80 64 61 1 
81 65 64 2 
82 66 61 1 
83 71 111 1 
84 72 71 1 
85 72 110 1 
86 73 71 2 
87 74 72 2 
88 74 78 1 
89 74 77 1 
90 75 73 1 
91 75 78 2 
92 75 109 1 
93 76 73 1 
94 76 79 1 
95 76 107 1 
96 76 108 1 
97 77 141 1 
98 78 106 1 
99 79 112 1 
100 80 77 2 
101 81 79 1 
102 82 81 1 
103 82 105 1 
104 83 81 2 
105 84 82 1 
106 84 392 1 
107 85 82 1 
108 85 103 1 
109 85 104 1 
110 85 87 1 
111 86 87 1 
112 86 84 1 
113 86 101 1 
114 86 102 1 
115 88 87 1 
116 89 87 1 
117 90 88 1 
118 90 99 1 
119 90 100 1 
120 91 89 2 
121 92 90 1 
122 92 97 1 
123 92 98 1 
124 93 92 1 
125 94 93 1 
126 95 93 1 
127 96 93 1 
128 113 348 1 
129 114 113 1 
130 114 127 1 
131 114 117 1 
132 115 118 1 
133 115 113 1 
134 115 125 1 
135 115 126 1 
136 116 114 1 
137 116 123 1 
138 116 124 1 
139 116 118 1 
140 117 347 1 
141 119 117 2 
142 120 118 1 
143 121 118 1 
144 122 121 2 
145 129 128 2 
146 129 379 1 
147 130 129 1 
148 131 130 2 
149 131 168 1 
150 132 130 1 
151 132 167 1 
152 133 131 1 
153 133 166 1 
154 134 132 2 
155 134 165 1 
156 135 134 1 
157 135 133 2 
158 136 135 1 
159 136 137 1 
160 136 163 1 
161 136 164 1 
162 137 169 1 
163 138 137 1 
164 139 138 1 
165 139 162 1 
166 140 138 2 
167 141 139 1 
168 142 139 1 
169 142 160 1 
170 142 161 1 
171 143 141 1 
172 143 158 1 
173 143 159 1 
174 144 143 1 
175 144 142 1 
176 145 144 1 
177 145 299 1 
178 145 147 1 
179 146 144 1 
180 146 295 1 
181 146 148 2 
182 147 157 1 
183 149 147 1 
184 150 149 1 
185 151 150 1 
186 152 150 1 
187 153 150 1 
188 154 149 1 
189 155 149 1 
190 156 147 1 
191 170 203 1 
192 171 170 1 
193 172 170 2 
194 173 171 1 
195 173 183 1 
196 173 184 1 
197 174 171 1 
198 174 177 1 
199 174 181 1 
200 174 182 1 
201 175 171 1 
202 175 201 1 
203 176 173 1 
204 176 177 1 
205 176 180 1 
206 176 178 1 
207 179 178 2 
208 185 187 2 
209 186 185 1 
210 186 188 1 
211 186 189 1 
212 186 190 1 
213 188 198 1 
214 188 199 1 
215 189 197 1 
216 191 188 1 
217 192 189 1 
218 192 191 1 
219 193 191 1 
220 194 193 2 
221 195 191 1 
222 196 189 1 
223 201 200 2 
224 202 201 1 
225 202 213 1 
226 203 202 1 
227 203 214 1 
228 204 202 1 
229 204 211 1 
230 204 212 1 
231 205 204 1 
232 205 209 1 
233 205 210 1 
234 206 205 1 
235 206 207 1 
236 208 207 2 
237 215 229 1 
238 215 217 1 
239 215 218 1 
240 216 215 1 
241 216 219 1 
242 216 357 1 
243 217 227 1 
244 217 228 1 
245 218 361 1 
246 220 219 1 
247 220 217 1 
248 221 218 2 
249 222 220 1 
250 222 316 1 
251 223 220 1 
252 223 317 1 
253 224 223 2 
254 225 219 1 
255 226 219 1 
256 230 237 1 
257 230 238 1 
258 230 239 1 
259 231 230 1 
260 232 231 1 
261 232 302 1 
262 233 232 1 
263 234 232 1 
264 235 231 1 
265 236 231 1 
266 240 252 1 
267 240 253 1 
268 241 240 1 
269 242 240 1 
270 242 250 1 
271 242 251 1 
272 243 241 1 
273 244 242 1 
274 244 249 1 
275 244 247 1 
276 245 243 2 
277 246 244 1 
278 246 248 2 
279 254 247 1 
280 256 255 2 
281 256 257 1 
282 257 269 1 
283 258 257 1 
284 259 257 1 
285 259 267 1 
286 259 268 1 
287 260 258 1 
288 261 260 1 
289 261 259 1 
290 262 261 1 
291 263 261 1 
292 264 263 2 
293 265 260 1 
294 266 260 1 
295 270 278 1 
296 270 279 1 
297 271 270 1 
298 271 277 1 
299 272 271 1 
300 273 272 1 
301 274 272 1 
302 275 272 1 
303 276 271 1 
304 280 293 1 
305 280 294 1 
306 281 280 1 
307 281 292 1 
308 282 280 1 
309 282 287 1 
310 283 281 1 
311 284 281 1 
312 284 288 2 
313 285 282 1 
314 285 283 1 
315 285 290 1 
316 285 291 1 
317 286 282 1 
318 286 325 1 
319 289 287 2 
320 295 297 1 
321 296 295 1 
322 296 309 1 
323 296 298 1 
324 296 299 1 
325 297 307 1 
326 297 308 1 
327 300 297 1 
328 300 298 1 
329 301 299 2 
330 302 300 1 
331 303 300 1 
332 304 303 2 
333 305 298 1 
334 306 298 1 
335 310 327 1 
336 311 310 1 
337 311 322 1 
338 311 323 1 
339 312 310 1 
340 313 311 1 
341 313 320 1 
342 313 321 1 
343 314 312 2 
344 314 326 1 
345 315 317 1 
346 315 313 1 
347 315 319 1 
348 316 315 1 
349 316 318 2 
350 324 317 1 
351 325 329 1 
352 325 330 1 
353 326 325 1 
354 326 327 2 
355 328 327 1 
356 331 339 1 
357 331 340 1 
358 332 331 1 
359 332 337 1 
360 332 338 1 
361 333 332 1 
362 334 333 1 
363 335 333 1 
364 336 333 1 
365 341 354 1 
366 341 355 1 
367 342 341 1 
368 342 353 1 
369 343 341 1 
370 343 347 1 
371 343 348 1 
372 344 342 1 
373 344 376 1 
374 345 342 1 
375 345 349 2 
376 345 371 1 
377 346 343 1 
378 346 344 1 
379 346 351 1 
380 346 352 1 
381 350 348 2 
382 356 357 2 
383 358 357 1 
384 359 358 1 
385 359 369 1 
386 359 370 1 
387 360 358 1 
388 360 367 1 
389 360 368 1 
390 361 358 1 
391 362 359 1 
392 363 362 1 
393 363 360 1 
394 364 362 1 
395 365 364 2 
396 366 362 1 
397 372 371 1 
398 373 371 1 
399 373 377 1 
400 374 372 1 
401 374 378 1 
402 375 372 1 
403 375 406 1 
404 375 379 1 
405 376 372 1 
406 376 380 2 
407 377 404 1 
408 377 405 1 
409 378 403 1 
410 379 378 1 
411 381 377 1 
412 381 400 1 
413 381 401 1 
414 381 402 1 
415 382 378 1 
416 383 382 2 
417 384 382 1 
418 385 384 1 
419 385 398 1 
420 385 399 1 
421 386 385 1 
422 386 387 2 
423 386 388 1 
424 387 397 1 
425 389 387 1 
426 390 388 2 
427 391 389 2 
428 391 390 1 
429 392 391 1 
430 393 392 2 
431 394 390 1 
432 395 389 1 
433 396 388 1 
434 407 375 1 
435 408 374 1 
436 409 374 1 
437 410 373 1 
438 411 373 1 
439 412 384 1 
440 413 425 1 
441 413 426 1 
442 414 413 1 
443 414 417 1 
444 414 424 1 
445 415 413 1 
446 415 287 1 
447 415 418 1 
448 416 414 1 
449 416 418 1 
450 416 422 1 
451 416 423 1 
452 417 193 1 
453 417 427 1 
454 419 286 1 
455 419 418 1 
456 420 419 2 
457 421 418 1 
458 428 17 1 
459 429 428 1 
460 429 442 1 
461 430 428 2 
462 431 429 1 
463 431 18 1 
464 432 429 1 
465 432 440 1 
466 432 441 1 
467 433 431 1 
468 433 438 1 
469 433 439 1 
470 434 432 1 
471 434 433 1 
472 435 364 1 
473 435 434 1 
474 435 486 1 
475 436 363 1 
476 436 434 1 
477 436 437 2 
478 443 208 1 
479 444 206 1 
480 444 443 2 
481 444 448 1 
482 445 190 1 
483 445 443 1 
484 445 447 1 
485 446 445 1 
486 449 457 1 
487 449 458 1 
488 450 449 1 
489 450 532 1 
490 451 449 1 
491 452 451 1 
492 453 451 1 
493 454 451 1 
494 455 450 1 
495 456 450 1 
496 459 467 1 
497 459 468 1 
498 460 175 1 
499 460 459 1 
500 461 459 1 
501 462 461 1 
502 463 461 1 
503 464 461 1 
504 465 460 1 
505 466 460 1 
506 469 120 1 
507 469 477 1 
508 469 478 1 
509 470 469 1 
510 471 470 1 
511 472 471 1 
512 473 471 1 
513 474 471 1 
514 475 470 1 
515 476 470 1 
516 480 479 1 
517 480 192 1 
518 481 480 1 
519 482 480 1 
520 483 479 1 
521 484 479 1 
522 485 479 1 
523 486 494 1 
524 486 495 1 
525 486 487 1 
526 488 487 1 
527 489 488 1 
528 490 488 1 
529 491 488 1 
530 492 487 1 
531 493 487 1 
532 496 497 1 
533 496 499 1 
534 496 509 1 
535 496 498 1 
536 497 263 1 
537 498 507 1 
538 498 508 1 
539 499 262 1 
540 500 497 1 
541 501 500 1 
542 501 498 1 
543 502 499 2 
544 503 284 1 
545 503 501 1 
546 503 510 1 
547 504 501 1 
548 505 500 1 
549 506 500 1 
550 511 241 1 
551 512 511 2 
552 512 245 1 
553 513 262 1 
554 513 512 1 
555 514 513 1 
556 515 513 1 
557 516 511 1 
558 518 517 1 
559 519 46 1 
560 519 518 1 
561 520 519 1 
562 521 519 1 
563 522 518 1 
564 523 518 1 
565 524 517 1 
566 525 517 1 
567 526 517 1 
568 528 62 1 
569 528 527 2 
570 529 528 1 
571 530 529 1 
572 530 540 1 
573 530 541 1 
574 531 529 1 
575 531 538 1 
576 531 539 1 
577 532 64 1 
578 532 529 1 
579 533 530 1 
580 533 537 1 
581 534 531 1 
582 534 533 1 
583 534 42 1 
584 535 46 1 
585 535 533 1 
586 536 535 2 
587 542 347 1 
588 542 550 1 
589 542 551 1 
590 543 542 1 
591 543 548 1 
592 543 549 1 
593 544 543 1 
594 544 547 1 
595 545 544 1 
596 546 544 1 
597 552 565 1 
598 553 552 1 
599 553 563 1 
600 553 564 1 
601 554 552 1 
602 554 557 1 
603 554 561 1 
604 554 562 1 
605 555 552 1 
606 555 256 1 
607 555 566 1 
608 556 553 1 
609 556 557 1 
610 556 558 1 
611 556 560 1 
612 557 185 1 
613 558 190 1 
614 559 558 2 
615 567 222 1 
616 568 567 1 
617 569 568 1 
618 570 569 1 
619 571 569 1 
620 572 569 1 
621 573 568 1 
622 574 568 1 
623 575 567 1 
624 576 567 1 
625 578 59 1 
626 578 577 1 
627 579 577 1 
628 580 579 1 
629 581 579 1 
630 582 579 1 
631 583 578 1 
632 584 578 1 
633 585 577 1 
634 586 577 1 
635 587 283 1 
636 588 587 1 
637 589 588 1 
638 590 588 1 
639 591 588 1 
640 592 587 1 
641 593 587 1 
642 594 258 1 
643 594 599 1 
644 594 600 1 
645 595 594 1 
646 595 597 1 
647 595 598 1 
648 596 595 1 
649 601 609 1 
650 601 610 1 
651 602 601 1 
652 602 607 1 
653 602 608 1 
654 603 601 1 
655 604 603 1 
656 605 603 1 
657 606 603 1 
658 611 624 1 
659 611 625 1 
660 612 611 1 
661 612 623 1 
662 613 611 1 
663 613 618 1 
664 613 617 1 
665 614 612 1 
666 614 689 1 
667 615 688 1 
668 615 612 1 
669 615 619 2 
670 616 614 1 
671 616 613 1 
672 616 621 1 
673 616 622 1 
674 620 618 2 
675 626 627 2 
676 627 777 1 
677 628 627 1 
678 629 628 1 
679 629 639 1 
680 629 640 1 
681 630 628 1 
682 630 637 1 
683 630 638 1 
684 631 628 1 
685 631 778 1 
686 632 629 1 
687 633 630 1 
688 633 632 1 
689 633 721 1 
690 634 632 1 
691 634 720 1 
692 635 634 2 
693 636 632 1 
694 642 641 2 
695 643 642 1 
696 644 643 1 
697 644 647 1 
698 644 654 1 
699 644 655 1 
700 645 643 1 
701 645 648 1 
702 645 652 1 
703 645 653 1 
704 646 643 1 
705 648 647 1 
706 649 647 1 
707 650 649 2 
708 651 647 1 
709 656 657 1 
710 656 660 1 
711 656 658 1 
712 656 659 1 
713 657 669 1 
714 657 670 1 
715 658 667 1 
716 658 668 1 
717 661 657 1 
718 662 661 1 
719 662 658 1 
720 663 660 2 
721 664 661 1 
722 665 664 2 
723 666 661 1 
724 671 711 1 
725 672 671 1 
726 672 710 1 
727 673 671 2 
728 674 672 2 
729 674 678 1 
730 674 677 1 
731 675 673 1 
732 675 678 2 
733 675 709 1 
734 676 673 1 
735 676 679 1 
736 676 707 1 
737 676 708 1 
738 677 741 1 
739 678 706 1 
740 679 712 1 
741 680 677 2 
742 681 679 1 
743 682 681 1 
744 682 705 1 
745 683 681 2 
746 684 682 1 
747 685 682 1 
748 685 703 1 
749 685 704 1 
750 685 687 1 
751 686 687 1 
752 686 684 1 
753 686 701 1 
754 686 702 1 
755 688 687 1 
756 689 687 1 
757 690 688 1 
758 690 699 1 
759 690 700 1 
760 691 689 2 
761 692 690 1 
762 692 697 1 
763 692 698 1 
764 693 692 1 
765 694 693 1 
766 695 693 1 
767 696 693 1 
768 714 713 1 
769 714 727 1 
770 714 717 1 
771 715 718 1 
772 715 713 1 
773 715 725 1 
774 715 726 1 
775 716 714 1 
776 716 723 1 
777 716 724 1 
778 716 718 1 
779 719 717 2 
780 720 718 1 
781 721 718 1 
782 722 721 2 
783 729 728 2 
784 730 729 1 
785 731 730 2 
786 731 768 1 
787 732 730 1 
788 732 767 1 
789 733 731 1 
790 733 766 1 
791 734 732 2 
792 734 765 1 
793 735 734 1 
794 735 733 2 
795 736 735 1 
796 736 737 1 
797 736 763 1 
798 736 764 1 
799 737 769 1 
800 738 737 1 
801 739 738 1 
802 739 762 1 
803 740 738 2 
804 741 739 1 
805 742 739 1 
806 742 760 1 
807 742 761 1 
808 743 741 1 
809 743 758 1 
810 743 759 1 
811 744 743 1 
812 744 742 1 
813 745 744 1 
814 745 747 1 
815 746 744 1 
816 746 748 2 
817 747 757 1 
818 749 747 1 
819 750 749 1 
820 751 750 1 
821 752 750 1 
822 753 750 1 
823 754 749 1 
824 755 749 1 
825 756 747 1 
826 770 803 1 
827 771 770 1 
828 772 770 2 
829 773 771 1 
830 773 783 1 
831 773 784 1 
832 774 771 1 
833 774 777 1 
834 774 781 1 
835 774 782 1 
836 775 771 1 
837 775 801 1 
838 776 773 1 
839 776 777 1 
840 776 780 1 
841 776 778 1 
842 779 778 2 
843 785 787 2 
844 786 785 1 
845 786 788 1 
846 786 789 1 
847 786 790 1 
848 788 798 1 
849 788 799 1 
850 789 797 1 
851 791 788 1 
852 792 789 1 
853 792 791 1 
854 793 791 1 
855 794 793 2 
856 795 791 1 
857 796 789 1 
858 801 800 2 
859 802 801 1 
860 803 802 1 
861 804 802 1 
862 805 804 1 
863 806 805 1 
864 807 806 1 
865 808 807 2 
866 809 805 1 
867 810 805 1 
868 811 804 1 
869 812 804 1 
870 813 802 1 
871 814 803 1 
872 815 829 1 
873 815 817 1 
874 815 818 1 
875 816 815 1 
876 816 819 1 
877 817 827 1 
878 817 828 1 
879 820 819 1 
880 820 817 1 
881 821 818 2 
882 822 820 1 
883 822 916 1 
884 823 820 1 
885 823 917 1 
886 824 823 2 
887 825 819 1 
888 826 819 1 
889 830 837 1 
890 830 838 1 
891 830 839 1 
892 831 830 1 
893 832 831 1 
894 832 902 1 
895 833 832 1 
896 834 832 1 
897 835 831 1 
898 836 831 1 
899 840 852 1 
900 840 853 1 
901 841 840 1 
902 842 840 1 
903 842 850 1 
904 842 851 1 
905 843 841 1 
906 844 842 1 
907 844 849 1 
908 844 847 1 
909 845 843 2 
910 846 659 1 
911 846 844 1 
912 846 848 2 
913 847 660 1 
914 854 847 1 
915 856 855 2 
916 856 857 1 
917 857 869 1 
918 858 857 1 
919 859 857 1 
920 859 867 1 
921 859 868 1 
922 860 858 1 
923 861 860 1 
924 861 859 1 
925 862 861 1 
926 863 861 1 
927 864 863 2 
928 865 860 1 
929 866 860 1 
930 870 631 1 
931 870 878 1 
932 870 879 1 
933 871 870 1 
934 871 877 1 
935 872 871 1 
936 873 872 1 
937 874 872 1 
938 875 872 1 
939 876 871 1 
940 880 893 1 
941 880 894 1 
942 881 880 1 
943 881 892 1 
944 882 880 1 
945 882 887 1 
946 883 881 1 
947 884 881 1 
948 884 888 2 
949 885 882 1 
950 885 883 1 
951 885 890 1 
952 885 891 1 
953 886 882 1 
954 886 925 1 
955 889 887 2 
956 895 746 1 
957 895 897 1 
958 896 895 1 
959 896 909 1 
960 896 898 1 
961 896 899 1 
962 897 907 1 
963 897 908 1 
964 899 745 1 
965 900 897 1 
966 900 898 1 
967 901 899 2 
968 902 649 1 
969 902 900 1 
970 903 648 1 
971 903 900 1 
972 904 903 2 
973 905 898 1 
974 906 898 1 
975 910 927 1 
976 911 910 1 
977 911 922 1 
978 911 923 1 
979 912 910 1 
980 913 911 1 
981 913 920 1 
982 913 921 1 
983 914 912 2 
984 914 926 1 
985 915 917 1 
986 915 913 1 
987 915 919 1 
988 916 915 1 
989 916 918 2 
990 924 917 1 
991 925 929 1 
992 925 930 1 
993 926 925 1 
994 926 927 2 
995 928 927 1 
996 931 617 1 
997 931 939 1 
998 931 940 1 
999 932 931 1 
1000 932 937 1 
1001 932 938 1 
1002 933 932 1 
1003 934 933 1 
1004 935 933 1 
1005 936 933 1 
1006 941 954 1 
1007 941 955 1 
1008 942 941 1 
1009 942 953 1 
1010 943 941 1 
1011 943 947 1 
1012 943 948 1 
1013 944 942 1 
1014 945 942 1 
1015 945 949 2 
1016 946 943 1 
1017 946 944 1 
1018 946 951 1 
1019 946 952 1 
1020 947 717 1 
1021 948 713 1 
1022 950 948 2 
1023 957 956 2 
1024 957 816 1 
1025 958 957 1 
1026 959 958 1 
1027 959 969 1 
1028 959 970 1 
1029 960 958 1 
1030 960 967 1 
1031 960 968 1 
1032 961 958 1 
1033 961 818 1 
1034 961 602 1 
1035 962 959 1 
1036 963 962 1 
1037 963 960 1 
1038 963 1036 1 
1039 964 962 1 
1040 964 1035 1 
1041 965 964 2 
1042 966 962 1 
1043 971 945 1 
1044 972 971 1 
1045 973 971 1 
1046 973 977 1 
1047 973 1010 1 
1048 973 1011 1 
1049 974 972 1 
1050 974 978 1 
1051 974 1008 1 
1052 974 1009 1 
1053 975 972 1 
1054 975 1006 1 
1055 975 1007 1 
1056 975 979 1 
1057 976 944 1 
1058 976 972 1 
1059 976 980 2 
1060 977 1004 1 
1061 977 1005 1 
1062 978 1003 1 
1063 979 978 1 
1064 979 729 1 
1065 981 977 1 
1066 981 1000 1 
1067 981 1001 1 
1068 981 1002 1 
1069 982 978 1 
1070 983 982 2 
1071 984 982 1 
1072 984 1012 1 
1073 985 984 1 
1074 985 998 1 
1075 985 999 1 
1076 986 985 1 
1077 986 987 2 
1078 986 988 1 
1079 987 997 1 
1080 989 987 1 
1081 990 988 2 
1082 991 989 2 
1083 991 990 1 
1084 992 684 1 
1085 992 991 1 
1086 993 992 2 
1087 994 990 1 
1088 995 989 1 
1089 996 988 1 
1090 1013 1025 1 
1091 1013 1026 1 
1092 1014 1013 1 
1093 1014 1017 1 
1094 1014 1024 1 
1095 1015 1013 1 
1096 1015 887 1 
1097 1015 1018 1 
1098 1016 1014 1 
1099 1016 1018 1 
1100 1016 1022 1 
1101 1016 1023 1 
1102 1017 793 1 
1103 1017 1027 1 
1104 1019 886 1 
1105 1019 1018 1 
1106 1020 1019 2 
1107 1021 1018 1 
1108 1028 617 1 
1109 1029 1028 1 
1110 1029 1042 1 
1111 1030 1028 2 
1112 1031 1029 1 
1113 1031 618 1 
1114 1032 1029 1 
1115 1032 1040 1 
1116 1032 1041 1 
1117 1033 1031 1 
1118 1033 1038 1 
1119 1033 1039 1 
1120 1034 1032 1 
1121 1034 1033 1 
1122 1035 1034 1 
1123 1035 1086 1 
1124 1036 1034 1 
1125 1036 1037 2 
1126 1043 808 1 
1127 1044 806 1 
1128 1044 1043 2 
1129 1044 1048 1 
1130 1045 790 1 
1131 1045 1043 1 
1132 1045 1047 1 
1133 1046 1045 1 
1134 1049 1057 1 
1135 1049 1058 1 
1136 1050 1049 1 
1137 1050 1132 1 
1138 1051 1049 1 
1139 1052 1051 1 
1140 1053 1051 1 
1141 1054 1051 1 
1142 1055 1050 1 
1143 1056 1050 1 
1144 1059 1067 1 
1145 1059 1068 1 
1146 1060 775 1 
1147 1060 1059 1 
1148 1061 1059 1 
1149 1062 1061 1 
1150 1063 1061 1 
1151 1064 1061 1 
1152 1065 1060 1 
1153 1066 1060 1 
1154 1069 720 1 
1155 1069 1077 1 
1156 1069 1078 1 
1157 1070 1069 1 
1158 1071 1070 1 
1159 1072 1071 1 
1160 1073 1071 1 
1161 1074 1071 1 
1162 1075 1070 1 
1163 1076 1070 1 
1164 1080 1079 1 
1165 1080 792 1 
1166 1081 1080 1 
1167 1082 1080 1 
1168 1083 1079 1 
1169 1084 1079 1 
1170 1085 1079 1 
1171 1086 1094 1 
1172 1086 1095 1 
1173 1086 1087 1 
1174 1088 1087 1 
1175 1089 1088 1 
1176 1090 1088 1 
1177 1091 1088 1 
1178 1092 1087 1 
1179 1093 1087 1 
1180 1096 1097 1 
1181 1096 1099 1 
1182 1096 1109 1 
1183 1096 1098 1 
1184 1097 863 1 
1185 1098 1107 1 
1186 1098 1108 1 
1187 1099 862 1 
1188 1100 1097 1 
1189 1101 1100 1 
1190 1101 1098 1 
1191 1102 1099 2 
1192 1103 884 1 
1193 1103 1101 1 
1194 1103 1110 1 
1195 1104 1101 1 
1196 1105 1100 1 
1197 1106 1100 1 
1198 1111 841 1 
1199 1112 1111 2 
1200 1112 845 1 
1201 1113 862 1 
1202 1113 1112 1 
1203 1114 1113 1 
1204 1115 1113 1 
1205 1116 1111 1 
1206 1118 1117 1 
1207 1119 646 1 
1208 1119 1118 1 
1209 1120 1119 1 
1210 1121 1119 1 
1211 1122 1118 1 
1212 1123 1118 1 
1213 1124 1117 1 
1214 1125 1117 1 
1215 1126 1117 1 
1216 1128 662 1 
1217 1128 1127 2 
1218 1129 1128 1 
1219 1130 1129 1 
1220 1130 1140 1 
1221 1130 1141 1 
1222 1131 1129 1 
1223 1131 1138 1 
1224 1131 1139 1 
1225 1132 664 1 
1226 1132 1129 1 
1227 1133 1130 1 
1228 1133 1137 1 
1229 1134 1131 1 
1230 1134 1133 1 
1231 1134 642 1 
1232 1135 646 1 
1233 1135 1133 1 
1234 1136 1135 2 
1235 1142 947 1 
1236 1142 1150 1 
1237 1142 1151 1 
1238 1143 1142 1 
1239 1143 1148 1 
1240 1143 1149 1 
1241 1144 1143 1 
1242 1144 1147 1 
1243 1145 1144 1 
1244 1146 1144 1 
1245 1152 1165 1 
1246 1153 1152 1 
1247 1153 1163 1 
1248 1153 1164 1 
1249 1154 1152 1 
1250 1154 1157 1 
1251 1154 1161 1 
1252 1154 1162 1 
1253 1155 1152 1 
1254 1155 856 1 
1255 1155 1166 1 
1256 1156 1153 1 
1257 1156 1157 1 
1258 1156 1158 1 
1259 1156 1160 1 
1260 1157 785 1 
1261 1158 790 1 
1262 1159 1158 2 
1263 1167 822 1 
1264 1168 1167 1 
1265 1169 1168 1 
1266 1170 1169 1 
1267 1171 1169 1 
1268 1172 1169 1 
1269 1173 1168 1 
1270 1174 1168 1 
1271 1175 1167 1 
1272 1176 1167 1 
1273 1178 659 1 
1274 1178 1177 1 
1275 1179 1177 1 
1276 1180 1179 1 
1277 1181 1179 1 
1278 1182 1179 1 
1279 1183 1178 1 
1280 1184 1178 1 
1281 1185 1177 1 
1282 1186 1177 1 
1283 1187 883 1 
1284 1188 1187 1 
1285 1189 1188 1 
1286 1190 1188 1 
1287 1191 1188 1 
1288 1192 1187 1 
1289 1193 1187 1 
1290 1194 858 1 
1291 1194 1199 1 
1292 1194 1200 1 
1293 1195 1194 1 
1294 1195 1197 1 
1295 1195 1198 1 
1296 1196 1195 1 
1297 1202 1201 1 
1298 1203 1201 1 
1299 1204 1203 1 
1300 1205 1203 1 
1301 1206 1203 1 
1302 1207 1202 1 
1303 1208 1202 1 
1304 1209 1201 1 
1305 1210 1201 1 
1306 1211 1224 1 
1307 1211 1225 1 
1308 1212 1211 1 
1309 1212 1223 1 
1310 1213 1211 1 
1311 1213 1218 1 
1312 1213 1217 1 
1313 1214 1212 1 
1314 1214 1289 1 
1315 1215 1288 1 
1316 1215 1212 1 
1317 1215 1219 2 
1318 1216 1214 1 
1319 1216 1213 1 
1320 1216 1221 1 
1321 1216 1222 1 
1322 1217 1531 1 
1323 1217 1628 1 
1324 1218 1631 1 
1325 1220 1218 2 
1326 1226 1227 2 
1327 1227 1377 1 
1328 1228 1227 1 
1329 1229 1228 1 
1330 1229 1239 1 
1331 1229 1240 1 
1332 1230 1228 1 
1333 1230 1237 1 
1334 1230 1238 1 
1335 1231 1228 1 
1336 1231 1378 1 
1337 1231 1470 1 
1338 1232 1229 1 
1339 1233 1230 1 
1340 1233 1232 1 
1341 1233 1321 1 
1342 1234 1232 1 
1343 1234 1320 1 
1344 1235 1234 2 
1345 1236 1232 1 
1346 1242 1241 2 
1347 1242 1734 1 
1348 1243 1242 1 
1349 1244 1243 1 
1350 1244 1247 1 
1351 1244 1254 1 
1352 1244 1255 1 
1353 1245 1243 1 
1354 1245 1248 1 
1355 1245 1252 1 
1356 1245 1253 1 
1357 1246 1243 1 
1358 1246 1719 1 
1359 1246 1735 1 
1360 1248 1247 1 
1361 1248 1503 1 
1362 1249 1502 1 
1363 1249 1247 1 
1364 1250 1249 2 
1365 1251 1247 1 
1366 1256 1257 1 
1367 1256 1260 1 
1368 1256 1258 1 
1369 1256 1259 1 
1370 1257 1269 1 
1371 1257 1270 1 
1372 1258 1267 1 
1373 1258 1268 1 
1374 1259 1446 1 
1375 1259 1778 1 
1376 1260 1447 1 
1377 1261 1257 1 
1378 1262 1261 1 
1379 1262 1258 1 
1380 1262 1728 1 
1381 1263 1260 2 
1382 1264 1261 1 
1383 1264 1732 1 
1384 1265 1264 2 
1385 1266 1261 1 
1386 1271 1311 1 
1387 1272 1271 1 
1388 1272 1310 1 
1389 1273 1271 2 
1390 1274 1272 2 
1391 1274 1278 1 
1392 1274 1277 1 
1393 1275 1273 1 
1394 1275 1278 2 
1395 1275 1309 1 
1396 1276 1273 1 
1397 1276 1279 1 
1398 1276 1307 1 
1399 1276 1308 1 
1400 1277 1341 1 
1401 1278 1306 1 
1402 1279 1312 1 
1403 1280 1277 2 
1404 1281 1279 1 
1405 1282 1281 1 
1406 1282 1305 1 
1407 1283 1281 2 
1408 1284 1282 1 
1409 1284 1592 1 
1410 1285 1282 1 
1411 1285 1303 1 
1412 1285 1304 1 
1413 1285 1287 1 
1414 1286 1287 1 
1415 1286 1284 1 
1416 1286 1301 1 
1417 1286 1302 1 
1418 1288 1287 1 
1419 1289 1287 1 
1420 1290 1288 1 
1421 1290 1299 1 
1422 1290 1300 1 
1423 1291 1289 2 
1424 1292 1290 1 
1425 1292 1297 1 
1426 1292 1298 1 
1427 1293 1292 1 
1428 1294 1293 1 
1429 1295 1293 1 
1430 1296 1293 1 
1431 1313 1548 1 
1432 1314 1313 1 
1433 1314 1327 1 
1434 1314 1317 1 
1435 1315 1318 1 
1436 1315 1313 1 
1437 1315 1325 1 
1438 1315 1326 1 
1439 1316 1314 1 
1440 1316 1323 1 
1441 1316 1324 1 
1442 1316 1318 1 
1443 1317 1547 1 
1444 1319 1317 2 
1445 1320 1318 1 
1446 1320 1669 1 
1447 1321 1318 1 
1448 1322 1321 2 
1449 1329 1328 2 
1450 1329 1579 1 
1451 1330 1329 1 
1452 1331 1330 2 
1453 1331 1368 1 
1454 1332 1330 1 
1455 1332 1367 1 
1456 1333 1331 1 
1457 1333 1366 1 
1458 1334 1332 2 
1459 1334 1365 1 
1460 1335 1334 1 
1461 1335 1333 2 
1462 1336 1335 1 
1463 1336 1337 1 
1464 1336 1363 1 
1465 1336 1364 1 
1466 1337 1369 1 
1467 1338 1337 1 
1468 1339 1338 1 
1469 1339 1362 1 
1470 1340 1338 2 
1471 1341 1339 1 
1472 1342 1339 1 
1473 1342 1360 1 
1474 1342 1361 1 
1475 1343 1341 1 
1476 1343 1358 1 
1477 1343 1359 1 
1478 1344 1343 1 
1479 1344 1342 1 
1480 1345 1344 1 
1481 1345 1499 1 
1482 1345 1347 1 
1483 1346 1344 1 
1484 1346 1495 1 
1485 1346 1348 2 
1486 1347 1357 1 
1487 1349 1347 1 
1488 1350 1349 1 
1489 1351 1350 1 
1490 1352 1350 1 
1491 1353 1350 1 
1492 1354 1349 1 
1493 1355 1349 1 
1494 1356 1347 1 
1495 1370 1403 1 
1496 1371 1370 1 
1497 1372 1370 2 
1498 1373 1371 1 
1499 1373 1383 1 
1500 1373 1384 1 
1501 1374 1371 1 
1502 1374 1377 1 
1503 1374 1381 1 
1504 1374 1382 1 
1505 1375 1371 1 
1506 1375 1401 1 
1507 1375 1660 1 
1508 1376 1373 1 
1509 1376 1377 1 
1510 1376 1380 1 
1511 1376 1378 1 
1512 1379 1378 2 
1513 1385 1387 2 
1514 1385 1757 1 
1515 1386 1385 1 
1516 1386 1388 1 
1517 1386 1389 1 
1518 1386 1390 1 
1519 1388 1398 1 
1520 1388 1399 1 
1521 1389 1397 1 
1522 1390 1645 1 
1523 1390 1758 1 
1524 1391 1388 1 
1525 1392 1389 1 
1526 1392 1391 1 
1527 1392 1680 1 
1528 1393 1391 1 
1529 1393 1617 1 
1530 1394 1393 2 
1531 1395 1391 1 
1532 1396 1389 1 
1533 1401 1400 2 
1534 1402 1401 1 
1535 1402 1413 1 
1536 1403 1402 1 
1537 1403 1414 1 
1538 1404 1402 1 
1539 1404 1411 1 
1540 1404 1412 1 
1541 1405 1404 1 
1542 1405 1409 1 
1543 1405 1410 1 
1544 1406 1405 1 
1545 1406 1407 1 
1546 1406 1644 1 
1547 1408 1407 2 
1548 1408 1643 1 
1549 1415 1429 1 
1550 1415 1417 1 
1551 1415 1418 1 
1552 1416 1415 1 
1553 1416 1419 1 
1554 1416 1557 1 
1555 1417 1427 1 
1556 1417 1428 1 
1557 1418 1561 1 
1558 1420 1419 1 
1559 1420 1417 1 
1560 1421 1418 2 
1561 1422 1420 1 
1562 1422 1516 1 
1563 1422 1767 1 
1564 1423 1420 1 
1565 1423 1517 1 
1566 1424 1423 2 
1567 1425 1419 1 
1568 1426 1419 1 
1569 1430 1437 1 
1570 1430 1438 1 
1571 1430 1439 1 
1572 1431 1430 1 
1573 1432 1431 1 
1574 1432 1502 1 
1575 1433 1432 1 
1576 1434 1432 1 
1577 1435 1431 1 
1578 1436 1431 1 
1579 1440 1452 1 
1580 1440 1453 1 
1581 1441 1440 1 
1582 1441 1711 1 
1583 1442 1440 1 
1584 1442 1450 1 
1585 1442 1451 1 
1586 1443 1441 1 
1587 1444 1442 1 
1588 1444 1449 1 
1589 1444 1447 1 
1590 1445 1443 2 
1591 1445 1712 1 
1592 1446 1444 1 
1593 1446 1448 2 
1594 1454 1447 1 
1595 1456 1455 2 
1596 1456 1457 1 
1597 1456 1755 1 
1598 1457 1469 1 
1599 1458 1457 1 
1600 1458 1794 1 
1601 1459 1457 1 
1602 1459 1467 1 
1603 1459 1468 1 
1604 1460 1458 1 
1605 1461 1460 1 
1606 1461 1459 1 
1607 1462 1461 1 
1608 1462 1699 1 
1609 1462 1713 1 
1610 1463 1461 1 
1611 1463 1697 1 
1612 1464 1463 2 
1613 1465 1460 1 
1614 1466 1460 1 
1615 1470 1478 1 
1616 1470 1479 1 
1617 1471 1470 1 
1618 1471 1477 1 
1619 1472 1471 1 
1620 1473 1472 1 
1621 1474 1472 1 
1622 1475 1472 1 
1623 1476 1471 1 
1624 1480 1493 1 
1625 1480 1494 1 
1626 1481 1480 1 
1627 1481 1492 1 
1628 1482 1480 1 
1629 1482 1487 1 
1630 1483 1481 1 
1631 1483 1787 1 
1632 1484 1481 1 
1633 1484 1488 2 
1634 1484 1703 1 
1635 1485 1482 1 
1636 1485 1483 1 
1637 1485 1490 1 
1638 1485 1491 1 
1639 1486 1482 1 
1640 1486 1619 1 
1641 1486 1525 1 
1642 1487 1615 1 
1643 1489 1487 2 
1644 1495 1497 1 
1645 1496 1495 1 
1646 1496 1509 1 
1647 1496 1498 1 
1648 1496 1499 1 
1649 1497 1507 1 
1650 1497 1508 1 
1651 1500 1497 1 
1652 1500 1498 1 
1653 1501 1499 2 
1654 1502 1500 1 
1655 1503 1500 1 
1656 1504 1503 2 
1657 1505 1498 1 
1658 1506 1498 1 
1659 1510 1527 1 
1660 1511 1510 1 
1661 1511 1522 1 
1662 1511 1523 1 
1663 1512 1510 1 
1664 1513 1511 1 
1665 1513 1520 1 
1666 1513 1521 1 
1667 1514 1512 2 
1668 1514 1526 1 
1669 1515 1517 1 
1670 1515 1513 1 
1671 1515 1519 1 
1672 1516 1515 1 
1673 1516 1518 2 
1674 1524 1517 1 
1675 1525 1529 1 
1676 1525 1530 1 
1677 1526 1525 1 
1678 1526 1527 2 
1679 1528 1527 1 
1680 1531 1539 1 
1681 1531 1540 1 
1682 1532 1531 1 
1683 1532 1537 1 
1684 1532 1538 1 
1685 1533 1532 1 
1686 1534 1533 1 
1687 1535 1533 1 
1688 1536 1533 1 
1689 1541 1554 1 
1690 1541 1555 1 
1691 1542 1541 1 
1692 1542 1553 1 
1693 1543 1541 1 
1694 1543 1547 1 
1695 1543 1548 1 
1696 1544 1542 1 
1697 1544 1576 1 
1698 1545 1542 1 
1699 1545 1549 2 
1700 1545 1571 1 
1701 1546 1543 1 
1702 1546 1544 1 
1703 1546 1551 1 
1704 1546 1552 1 
1705 1547 1742 1 
1706 1550 1548 2 
1707 1556 1557 2 
1708 1558 1557 1 
1709 1559 1558 1 
1710 1559 1569 1 
1711 1559 1570 1 
1712 1560 1558 1 
1713 1560 1567 1 
1714 1560 1568 1 
1715 1561 1558 1 
1716 1561 1202 1 
1717 1562 1559 1 
1718 1563 1562 1 
1719 1563 1560 1 
1720 1563 1636 1 
1721 1564 1562 1 
1722 1564 1635 1 
1723 1565 1564 2 
1724 1566 1562 1 
1725 1572 1571 1 
1726 1573 1571 1 
1727 1573 1577 1 
1728 1573 1610 1 
1729 1573 1611 1 
1730 1574 1572 1 
1731 1574 1578 1 
1732 1574 1608 1 
1733 1574 1609 1 
1734 1575 1572 1 
1735 1575 1606 1 
1736 1575 1607 1 
1737 1575 1579 1 
1738 1576 1572 1 
1739 1576 1580 2 
1740 1577 1604 1 
1741 1577 1605 1 
1742 1578 1603 1 
1743 1579 1578 1 
1744 1581 1577 1 
1745 1581 1600 1 
1746 1581 1601 1 
1747 1581 1602 1 
1748 1582 1578 1 
1749 1583 1582 2 
1750 1584 1582 1 
1751 1584 1612 1 
1752 1585 1584 1 
1753 1585 1598 1 
1754 1585 1599 1 
1755 1586 1585 1 
1756 1586 1587 2 
1757 1586 1588 1 
1758 1587 1597 1 
1759 1589 1587 1 
1760 1590 1588 2 
1761 1591 1589 2 
1762 1591 1590 1 
1763 1592 1591 1 
1764 1593 1592 2 
1765 1594 1590 1 
1766 1595 1589 1 
1767 1596 1588 1 
1768 1613 1625 1 
1769 1613 1626 1 
1770 1614 1613 1 
1771 1614 1617 1 
1772 1614 1624 1 
1773 1615 1613 1 
1774 1615 1618 1 
1775 1616 1614 1 
1776 1616 1618 1 
1777 1616 1622 1 
1778 1616 1623 1 
1779 1617 1627 1 
1780 1619 1618 1 
1781 1620 1619 2 
1782 1621 1618 1 
1783 1629 1628 1 
1784 1629 1642 1 
1785 1630 1628 2 
1786 1631 1629 1 
1787 1632 1629 1 
1788 1632 1640 1 
1789 1632 1641 1 
1790 1633 1631 1 
1791 1633 1638 1 
1792 1633 1639 1 
1793 1634 1632 1 
1794 1634 1633 1 
1795 1635 1634 1 
1796 1635 1686 1 
1797 1636 1634 1 
1798 1636 1637 2 
1799 1644 1643 2 
1800 1644 1648 1 
1801 1645 1643 1 
1802 1645 1647 1 
1803 1646 1645 1 
1804 1649 1657 1 
1805 1649 1658 1 
1806 1650 1649 1 
1807 1650 1732 1 
1808 1651 1649 1 
1809 1652 1651 1 
1810 1653 1651 1 
1811 1654 1651 1 
1812 1655 1650 1 
1813 1656 1650 1 
1814 1659 1667 1 
1815 1659 1668 1 
1816 1660 1659 1 
1817 1661 1659 1 
1818 1662 1661 1 
1819 1663 1661 1 
1820 1664 1661 1 
1821 1665 1660 1 
1822 1666 1660 1 
1823 1669 1677 1 
1824 1669 1678 1 
1825 1670 1669 1 
1826 1671 1670 1 
1827 1672 1671 1 
1828 1673 1671 1 
1829 1674 1671 1 
1830 1675 1670 1 
1831 1676 1670 1 
1832 1680 1679 1 
1833 1681 1680 1 
1834 1682 1680 1 
1835 1683 1679 1 
1836 1684 1679 1 
1837 1685 1679 1 
1838 1686 1694 1 
1839 1686 1695 1 
1840 1686 1687 1 
1841 1688 1687 1 
1842 1689 1688 1 
1843 1690 1688 1 
1844 1691 1688 1 
1845 1692 1687 1 
1846 1693 1687 1 
1847 1696 1697 1 
1848 1696 1699 1 
1849 1696 1709 1 
1850 1696 1698 1 
1851 1698 1707 1 
1852 1698 1708 1 
1853 1700 1697 1 
1854 1701 1700 1 
1855 1701 1698 1 
1856 1702 1699 2 
1857 1703 1701 1 
1858 1703 1710 1 
1859 1704 1701 1 
1860 1705 1700 1 
1861 1706 1700 1 
1862 1712 1711 2 
1863 1713 1712 1 
1864 1714 1713 1 
1865 1715 1713 1 
1866 1716 1711 1 
1867 1718 1717 1 
1868 1719 1718 1 
1869 1720 1719 1 
1870 1721 1719 1 
1871 1722 1718 1 
1872 1723 1718 1 
1873 1724 1717 1 
1874 1725 1717 1 
1875 1726 1717 1 
1876 1728 1727 2 
1877 1729 1728 1 
1878 1730 1729 1 
1879 1730 1740 1 
1880 1730 1741 1 
1881 1731 1729 1 
1882 1731 1738 1 
1883 1731 1739 1 
1884 1732 1729 1 
1885 1733 1730 1 
1886 1733 1737 1 
1887 1734 1731 1 
1888 1734 1733 1 
1889 1735 1733 1 
1890 1736 1735 2 
1891 1742 1750 1 
1892 1742 1751 1 
1893 1743 1742 1 
1894 1743 1748 1 
1895 1743 1749 1 
1896 1744 1743 1 
1897 1744 1747 1 
1898 1745 1744 1 
1899 1746 1744 1 
1900 1752 1765 1 
1901 1753 1752 1 
1902 1753 1763 1 
1903 1753 1764 1 
1904 1754 1752 1 
1905 1754 1757 1 
1906 1754 1761 1 
1907 1754 1762 1 
1908 1755 1752 1 
1909 1755 1766 1 
1910 1756 1753 1 
1911 1756 1757 1 
1912 1756 1758 1 
1913 1756 1760 1 
1914 1759 1758 2 
1915 1768 1767 1 
1916 1769 1768 1 
1917 1770 1769 1 
1918 1771 1769 1 
1919 1772 1769 1 
1920 1773 1768 1 
1921 1774 1768 1 
1922 1775 1767 1 
1923 1776 1767 1 
1924 1778 1777 1 
1925 1779 1777 1 
1926 1780 1779 1 
1927 1781 1779 1 
1928 1782 1779 1 
1929 1783 1778 1 
1930 1784 1778 1 
1931 1785 1777 1 
1932 1786 1777 1 
1933 1788 1787 1 
1934 1789 1788 1 
1935 1790 1788 1 
1936 1791 1788 1 
1937 1792 1787 1 
1938 1793 1787 1 
1939 1794 1799 1 
1940 1794 1800 1 
1941 1795 1794 1 
1942 1795 1797 1 
1943 1795 1798 1 
1944 1796 1795 1 
1945 1802 1801 1 
1946 1803 1801 1 
1947 1804 1803 1 
1948 1805 1803 1 
1949 1806 1803 1 
1950 1807 1802 1 
1951 1808 1802 1 
1952 1809 1801 1 
1953 1810 1801 1 
1954 1811 1824 1 
1955 1811 1825 1 
1956 1812 1811 1 
1957 1812 1823 1 
1958 1813 1811 1 
1959 1813 1818 1 
1960 1813 1817 1 
1961 1814 1812 1 
1962 1814 1889 1 
1963 1815 1888 1 
1964 1815 1812 1 
1965 1815 1819 2 
1966 1816 1814 1 
1967 1816 1813 1 
1968 1816 1821 1 
1969 1816 1822 1 
1970 1817 2131 1 
1971 1817 2228 1 
1972 1818 2231 1 
1973 1820 1818 2 
1974 1826 1827 2 
1975 1827 1977 1 
1976 1828 1827 1 
1977 1829 1828 1 
1978 1829 1839 1 
1979 1829 1840 1 
1980 1830 1828 1 
1981 1830 1837 1 
1982 1830 1838 1 
1983 1831 1828 1 
1984 1831 1978 1 
1985 1831 2070 1 
1986 1832 1829 1 
1987 1833 1830 1 
1988 1833 1832 1 
1989 1833 1921 1 
1990 1834 1832 1 
1991 1834 1920 1 
1992 1835 1834 2 
1993 1836 1832 1 
1994 1842 1841 2 
1995 1843 1842 1 
1996 1844 1843 1 
1997 1844 1847 1 
1998 1844 1854 1 
1999 1844 1855 1 
2000 1845 1843 1 
2001 1845 1848 1 
2002 1845 1852 1 
2003 1845 1853 1 
2004 1846 1843 1 
2005 1846 2319 1 
2006 1848 1847 1 
2007 1848 2103 1 
2008 1849 2102 1 
2009 1849 1847 1 
2010 1850 1849 2 
2011 1851 1847 1 
2012 1856 1857 1 
2013 1856 1860 1 
2014 1856 1858 1 
2015 1856 1859 1 
2016 1857 1869 1 
2017 1857 1870 1 
2018 1858 1867 1 
2019 1858 1868 1 
2020 1859 2046 1 
2021 1860 2047 1 
2022 1861 1857 1 
2023 1862 1861 1 
2024 1862 1858 1 
2025 1863 1860 2 
2026 1864 1861 1 
2027 1865 1864 2 
2028 1866 1861 1 
2029 1871 1911 1 
2030 1872 1871 1 
2031 1872 1910 1 
2032 1873 1871 2 
2033 1874 1872 2 
2034 1874 1878 1 
2035 1874 1877 1 
2036 1875 1873 1 
2037 1875 1878 2 
2038 1875 1909 1 
2039 1876 1873 1 
2040 1876 1879 1 
2041 1876 1907 1 
2042 1876 1908 1 
2043 1877 1941 1 
2044 1878 1906 1 
2045 1879 1912 1 
2046 1880 1877 2 
2047 1881 1879 1 
2048 1882 1881 1 
2049 1882 1905 1 
2050 1883 1881 2 
2051 1884 1882 1 
2052 1884 2192 1 
2053 1885 1882 1 
2054 1885 1903 1 
2055 1885 1904 1 
2056 1885 1887 1 
2057 1886 1887 1 
2058 1886 1884 1 
2059 1886 1901 1 
2060 1886 1902 1 
2061 1888 1887 1 
2062 1889 1887 1 
2063 1890 1888 1 
2064 1890 1899 1 
2065 1890 1900 1 
2066 1891 1889 2 
2067 1892 1890 1 
2068 1892 1897 1 
2069 1892 1898 1 
2070 1893 1892 1 
2071 1894 1893 1 
2072 1895 1893 1 
2073 1896 1893 1 
2074 1913 2148 1 
2075 1914 1913 1 
2076 1914 1927 1 
2077 1914 1917 1 
2078 1915 1918 1 
2079 1915 1913 1 
2080 1915 1925 1 
2081 1915 1926 1 
2082 1916 1914 1 
2083 1916 1923 1 
2084 1916 1924 1 
2085 1916 1918 1 
2086 1917 2147 1 
2087 1919 1917 2 
2088 1920 1918 1 
2089 1920 2269 1 
2090 1921 1918 1 
2091 1922 1921 2 
2092 1929 1928 2 
2093 1929 2179 1 
2094 1930 1929 1 
2095 1931 1930 2 
2096 1931 1968 1 
2097 1932 1930 1 
2098 1932 1967 1 
2099 1933 1931 1 
2100 1933 1966 1 
2101 1934 1932 2 
2102 1934 1965 1 
2103 1935 1934 1 
2104 1935 1933 2 
2105 1936 1935 1 
2106 1936 1937 1 
2107 1936 1963 1 
2108 1936 1964 1 
2109 1937 1969 1 
2110 1938 1937 1 
2111 1939 1938 1 
2112 1939 1962 1 
2113 1940 1938 2 
2114 1941 1939 1 
2115 1942 1939 1 
2116 1942 1960 1 
2117 1942 1961 1 
2118 1943 1941 1 
2119 1943 1958 1 
2120 1943 1959 1 
2121 1944 1943 1 
2122 1944 1942 1 
2123 1945 1944 1 
2124 1945 2099 1 
2125 1945 1947 1 
2126 1946 1944 1 
2127 1946 2095 1 
2128 1946 1948 2 
2129 1947 1957 1 
2130 1949 1947 1 
2131 1950 1949 1 
2132 1951 1950 1 
2133 1952 1950 1 
2134 1953 1950 1 
2135 1954 1949 1 
2136 1955 1949 1 
2137 1956 1947 1 
2138 1970 2003 1 
2139 1971 1970 1 
2140 1972 1970 2 
2141 1973 1971 1 
2142 1973 1983 1 
2143 1973 1984 1 
2144 1974 1971 1 
2145 1974 1977 1 
2146 1974 1981 1 
2147 1974 1982 1 
2148 1975 1971 1 
2149 1975 2001 1 
2150 1975 2260 1 
2151 1976 1973 1 
2152 1976 1977 1 
2153 1976 1980 1 
2154 1976 1978 1 
2155 1979 1978 2 
2156 1985 1987 2 
2157 1986 1985 1 
2158 1986 1988 1 
2159 1986 1989 1 
2160 1986 1990 1 
2161 1988 1998 1 
2162 1988 1999 1 
2163 1989 1997 1 
2164 1990 2245 1 
2165 1991 1988 1 
2166 1992 1989 1 
2167 1992 1991 1 
2168 1992 2280 1 
2169 1993 1991 1 
2170 1993 2217 1 
2171 1994 1993 2 
2172 1995 1991 1 
2173 1996 1989 1 
2174 2001 2000 2 
2175 2002 2001 1 
2176 2002 2013 1 
2177 2003 2002 1 
2178 2003 2014 1 
2179 2004 2002 1 
2180 2004 2011 1 
2181 2004 2012 1 
2182 2005 2004 1 
2183 2005 2009 1 
2184 2005 2010 1 
2185 2006 2005 1 
2186 2006 2007 1 
2187 2006 2244 1 
2188 2008 2007 2 
2189 2008 2243 1 
2190 2015 2029 1 
2191 2015 2017 1 
2192 2015 2018 1 
2193 2016 2015 1 
2194 2016 2019 1 
2195 2016 2157 1 
2196 2017 2027 1 
2197 2017 2028 1 
2198 2018 2161 1 
2199 2020 2019 1 
2200 2020 2017 1 
2201 2021 2018 2 
2202 2022 2020 1 
2203 2022 2116 1 
2204 2023 2020 1 
2205 2023 2117 1 
2206 2024 2023 2 
2207 2025 2019 1 
2208 2026 2019 1 
2209 2030 2037 1 
2210 2030 2038 1 
2211 2030 2039 1 
2212 2031 2030 1 
2213 2032 2031 1 
2214 2032 2102 1 
2215 2033 2032 1 
2216 2034 2032 1 
2217 2035 2031 1 
2218 2036 2031 1 
2219 2040 2052 1 
2220 2040 2053 1 
2221 2041 2040 1 
2222 2041 2311 1 
2223 2042 2040 1 
2224 2042 2050 1 
2225 2042 2051 1 
2226 2043 2041 1 
2227 2044 2042 1 
2228 2044 2049 1 
2229 2044 2047 1 
2230 2045 2043 2 
2231 2045 2312 1 
2232 2046 2044 1 
2233 2046 2048 2 
2234 2054 2047 1 
2235 2056 2055 2 
2236 2056 2057 1 
2237 2057 2069 1 
2238 2058 2057 1 
2239 2059 2057 1 
2240 2059 2067 1 
2241 2059 2068 1 
2242 2060 2058 1 
2243 2061 2060 1 
2244 2061 2059 1 
2245 2062 2061 1 
2246 2062 2299 1 
2247 2062 2313 1 
2248 2063 2061 1 
2249 2063 2297 1 
2250 2064 2063 2 
2251 2065 2060 1 
2252 2066 2060 1 
2253 2070 2078 1 
2254 2070 2079 1 
2255 2071 2070 1 
2256 2071 2077 1 
2257 2072 2071 1 
2258 2073 2072 1 
2259 2074 2072 1 
2260 2075 2072 1 
2261 2076 2071 1 
2262 2080 2093 1 
2263 2080 2094 1 
2264 2081 2080 1 
2265 2081 2092 1 
2266 2082 2080 1 
2267 2082 2087 1 
2268 2083 2081 1 
2269 2084 2081 1 
2270 2084 2088 2 
2271 2084 2303 1 
2272 2085 2082 1 
2273 2085 2083 1 
2274 2085 2090 1 
2275 2085 2091 1 
2276 2086 2082 1 
2277 2086 2219 1 
2278 2086 2125 1 
2279 2087 2215 1 
2280 2089 2087 2 
2281 2095 2097 1 
2282 2096 2095 1 
2283 2096 2109 1 
2284 2096 2098 1 
2285 2096 2099 1 
2286 2097 2107 1 
2287 2097 2108 1 
2288 2100 2097 1 
2289 2100 2098 1 
2290 2101 2099 2 
2291 2102 2100 1 
2292 2103 2100 1 
2293 2104 2103 2 
2294 2105 2098 1 
2295 2106 2098 1 
2296 2110 2127 1 
2297 2111 2110 1 
2298 2111 2122 1 
2299 2111 2123 1 
2300 2112 2110 1 
2301 2113 2111 1 
2302 2113 2120 1 
2303 2113 2121 1 
2304 2114 2112 2 
2305 2114 2126 1 
2306 2115 2117 1 
2307 2115 2113 1 
2308 2115 2119 1 
2309 2116 2115 1 
2310 2116 2118 2 
2311 2124 2117 1 
2312 2125 2129 1 
2313 2125 2130 1 
2314 2126 2125 1 
2315 2126 2127 2 
2316 2128 2127 1 
2317 2131 2139 1 
2318 2131 2140 1 
2319 2132 2131 1 
2320 2132 2137 1 
2321 2132 2138 1 
2322 2133 2132 1 
2323 2134 2133 1 
2324 2135 2133 1 
2325 2136 2133 1 
2326 2141 2154 1 
2327 2141 2155 1 
2328 2142 2141 1 
2329 2142 2153 1 
2330 2143 2141 1 
2331 2143 2147 1 
2332 2143 2148 1 
2333 2144 2142 1 
2334 2144 2176 1 
2335 2145 2142 1 
2336 2145 2149 2 
2337 2145 2171 1 
2338 2146 2143 1 
2339 2146 2144 1 
2340 2146 2151 1 
2341 2146 2152 1 
2342 2150 2148 2 
2343 2156 2157 2 
2344 2158 2157 1 
2345 2159 2158 1 
2346 2159 2169 1 
2347 2159 2170 1 
2348 2160 2158 1 
2349 2160 2167 1 
2350 2160 2168 1 
2351 2161 2158 1 
2352 2161 1802 1 
2353 2162 2159 1 
2354 2163 2162 1 
2355 2163 2160 1 
2356 2163 2236 1 
2357 2164 2162 1 
2358 2164 2235 1 
2359 2165 2164 2 
2360 2166 2162 1 
2361 2172 2171 1 
2362 2173 2171 1 
2363 2173 2177 1 
2364 2173 2210 1 
2365 2173 2211 1 
2366 2174 2172 1 
2367 2174 2178 1 
2368 2174 2208 1 
2369 2174 2209 1 
2370 2175 2172 1 
2371 2175 2206 1 
2372 2175 2207 1 
2373 2175 2179 1 
2374 2176 2172 1 
2375 2176 2180 2 
2376 2177 2204 1 
2377 2177 2205 1 
2378 2178 2203 1 
2379 2179 2178 1 
2380 2181 2177 1 
2381 2181 2200 1 
2382 2181 2201 1 
2383 2181 2202 1 
2384 2182 2178 1 
2385 2183 2182 2 
2386 2184 2182 1 
2387 2184 2212 1 
2388 2185 2184 1 
2389 2185 2198 1 
2390 2185 2199 1 
2391 2186 2185 1 
2392 2186 2187 2 
2393 2186 2188 1 
2394 2187 2197 1 
2395 2189 2187 1 
2396 2190 2188 2 
2397 2191 2189 2 
2398 2191 2190 1 
2399 2192 2191 1 
2400 2193 2192 2 
2401 2194 2190 1 
2402 2195 2189 1 
2403 2196 2188 1 
2404 2213 2225 1 
2405 2213 2226 1 
2406 2214 2213 1 
2407 2214 2217 1 
2408 2214 2224 1 
2409 2215 2213 1 
2410 2215 2218 1 
2411 2216 2214 1 
2412 2216 2218 1 
2413 2216 2222 1 
2414 2216 2223 1 
2415 2217 2227 1 
2416 2219 2218 1 
2417 2220 2219 2 
2418 2221 2218 1 
2419 2229 2228 1 
2420 2229 2242 1 
2421 2230 2228 2 
2422 2231 2229 1 
2423 2232 2229 1 
2424 2232 2240 1 
2425 2232 2241 1 
2426 2233 2231 1 
2427 2233 2238 1 
2428 2233 2239 1 
2429 2234 2232 1 
2430 2234 2233 1 
2431 2235 2234 1 
2432 2235 2286 1 
2433 2236 2234 1 
2434 2236 2237 2 
2435 2244 2243 2 
2436 2244 2248 1 
2437 2245 2243 1 
2438 2245 2247 1 
2439 2246 2245 1 
2440 2249 2257 1 
2441 2249 2258 1 
2442 2250 2249 1 
2443 2251 2249 1 
2444 2252 2251 1 
2445 2253 2251 1 
2446 2254 2251 1 
2447 2255 2250 1 
2448 2256 2250 1 
2449 2259 2267 1 
2450 2259 2268 1 
2451 2260 2259 1 
2452 2261 2259 1 
2453 2262 2261 1 
2454 2263 2261 1 
2455 2264 2261 1 
2456 2265 2260 1 
2457 2266 2260 1 
2458 2269 2277 1 
2459 2269 2278 1 
2460 2270 2269 1 
2461 2271 2270 1 
2462 2272 2271 1 
2463 2273 2271 1 
2464 2274 2271 1 
2465 2275 2270 1 
2466 2276 2270 1 
2467 2280 2279 1 
2468 2281 2280 1 
2469 2282 2280 1 
2470 2283 2279 1 
2471 2284 2279 1 
2472 2285 2279 1 
2473 2286 2294 1 
2474 2286 2295 1 
2475 2286 2287 1 
2476 2288 2287 1 
2477 2289 2288 1 
2478 2290 2288 1 
2479 2291 2288 1 
2480 2292 2287 1 
2481 2293 2287 1 
2482 2296 2297 1 
2483 2296 2299 1 
2484 2296 2309 1 
2485 2296 2298 1 
2486 2298 2307 1 
2487 2298 2308 1 
2488 2300 2297 1 
2489 2301 2300 1 
2490 2301 2298 1 
2491 2302 2299 2 
2492 2303 2301 1 
2493 2303 2310 1 
2494 2304 2301 1 
2495 2305 2300 1 
2496 2306 2300 1 
2497 2312 2311 2 
2498 2313 2312 1 
2499 2314 2313 1 
2500 2315 2313 1 
2501 2316 2311 1 
2502 2318 2317 1 
2503 2319 2318 1 
2504 2320 2319 1 
2505 2321 2319 1 
2506 2322 2318 1 
2507 2323 2318 1 
2508 2324 2317 1 
2509 2325 2317 1 
2510 2326 2317 1 
2511 2328 1862 1 
2512 2328 2327 2 
2513 2329 2328 1 
2514 2330 2329 1 
2515 2330 2340 1 
2516 2330 2341 1 
2517 2331 2329 1 
2518 2331 2338 1 
2519 2331 2339 1 
2520 2332 1864 1 
2521 2332 2250 1 
2522 2332 2329 1 
2523 2333 2330 1 
2524 2333 2337 1 
2525 2334 2331 1 
2526 2334 2333 1 
2527 2334 1842 1 
2528 2335 1846 1 
2529 2335 2333 1 
2530 2336 2335 2 
2531 2342 2147 1 
2532 2342 2350 1 
2533 2342 2351 1 
2534 2343 2342 1 
2535 2343 2348 1 
2536 2343 2349 1 
2537 2344 2343 1 
2538 2344 2347 1 
2539 2345 2344 1 
2540 2346 2344 1 
2541 2352 2365 1 
2542 2353 2352 1 
2543 2353 2363 1 
2544 2353 2364 1 
2545 2354 2352 1 
2546 2354 2357 1 
2547 2354 2361 1 
2548 2354 2362 1 
2549 2355 2352 1 
2550 2355 2056 1 
2551 2355 2366 1 
2552 2356 2353 1 
2553 2356 2357 1 
2554 2356 2358 1 
2555 2356 2360 1 
2556 2357 1985 1 
2557 2358 1990 1 
2558 2359 2358 2 
2559 2367 2022 1 
2560 2368 2367 1 
2561 2369 2368 1 
2562 2370 2369 1 
2563 2371 2369 1 
2564 2372 2369 1 
2565 2373 2368 1 
2566 2374 2368 1 
2567 2375 2367 1 
2568 2376 2367 1 
2569 2378 1859 1 
2570 2378 2377 1 
2571 2379 2377 1 
2572 2380 2379 1 
2573 2381 2379 1 
2574 2382 2379 1 
2575 2383 2378 1 
2576 2384 2378 1 
2577 2385 2377 1 
2578 2386 2377 1 
2579 2387 2083 1 
2580 2388 2387 1 
2581 2389 2388 1 
2582 2390 2388 1 
2583 2391 2388 1 
2584 2392 2387 1 
2585 2393 2387 1 
2586 2394 2058 1 
2587 2394 2399 1 
2588 2394 2400 1 
2589 2395 2394 1 
2590 2395 2397 1 
2591 2395 2398 1 
2592 2396 2395 1 
2593 2402 2401 1 
2594 2403 2401 1 
2595 2404 2403 1 
2596 2405 2403 1 
2597 2406 2403 1 
2598 2407 2402 1 
2599 2408 2402 1 
2600 2409 2401 1 
2601 2410 2401 1 
2602 2412 2411 1 
2603 2413 2411 1 
2604 2414 2412 1 
2605 2415 2412 1 
2606 2416 2414 1 
2607 2416 2413 1 
2608 2417 2413 1 
2609 2418 2413 1 
2610 2419 2415 2 
2611 2420 2418 2 
2612 2421 2416 1 
2613 2422 2416 1 
2614 2423 2412 1 
2615 2424 2411 1 
2616 2425 2411 1 
2617 2426 2427 2 
2618 2428 2427 1 
2619 2429 2428 1 
2620 2429 2439 1 
2621 2429 2440 1 
2622 2430 2428 1 
2623 2430 2437 1 
2624 2430 2438 1 
2625 2431 2428 1 
2626 2432 2429 1 
2627 2433 2430 1 
2628 2433 2432 1 
2629 2433 2521 1 
2630 2434 2432 1 
2631 2434 2520 1 
2632 2435 2434 2 
2633 2436 2432 1 
2634 2442 2441 2 
2635 2443 2442 1 
2636 2444 2443 1 
2637 2444 2447 1 
2638 2444 2454 1 
2639 2444 2455 1 
2640 2445 2443 1 
2641 2445 2448 1 
2642 2445 2452 1 
2643 2445 2453 1 
2644 2446 2443 1 
2645 2448 2447 1 
2646 2449 2447 1 
2647 2450 2449 2 
2648 2451 2447 1 
2649 2456 2457 1 
2650 2456 2460 1 
2651 2456 2458 1 
2652 2456 2459 1 
2653 2457 2469 1 
2654 2457 2470 1 
2655 2458 2467 1 
2656 2458 2468 1 
2657 2461 2457 1 
2658 2462 2461 1 
2659 2462 2458 1 
2660 2463 2460 2 
2661 2464 2461 1 
2662 2465 2464 2 
2663 2466 2461 1 
2664 2471 2511 1 
2665 2472 2471 1 
2666 2472 2510 1 
2667 2473 2471 2 
2668 2474 2472 2 
2669 2474 2478 1 
2670 2474 2477 1 
2671 2475 2473 1 
2672 2475 2478 2 
2673 2475 2509 1 
2674 2476 2473 1 
2675 2476 2479 1 
2676 2476 2507 1 
2677 2476 2508 1 
2678 2478 2506 1 
2679 2479 2512 1 
2680 2480 2477 2 
2681 2481 2479 1 
2682 2482 2481 1 
2683 2482 2505 1 
2684 2483 2481 2 
2685 2484 2482 1 
2686 2485 2482 1 
2687 2485 2503 1 
2688 2485 2504 1 
2689 2485 2487 1 
2690 2486 2487 1 
2691 2486 2484 1 
2692 2486 2501 1 
2693 2486 2502 1 
2694 2488 2415 1 
2695 2488 2487 1 
2696 2489 2414 1 
2697 2489 2487 1 
2698 2490 2488 1 
2699 2490 2499 1 
2700 2490 2500 1 
2701 2491 2489 2 
2702 2492 2490 1 
2703 2492 2497 1 
2704 2492 2498 1 
2705 2493 2492 1 
2706 2494 2493 1 
2707 2495 2493 1 
2708 2496 2493 1 
2709 2514 2513 1 
2710 2514 2527 1 
2711 2514 2517 1 
2712 2515 2518 1 
2713 2515 2513 1 
2714 2515 2525 1 
2715 2515 2526 1 
2716 2516 2514 1 
2717 2516 2523 1 
2718 2516 2524 1 
2719 2516 2518 1 
2720 2519 2517 2 
2721 2520 2518 1 
2722 2521 2518 1 
2723 2522 2521 2 
2724 2529 2528 2 
2725 2530 2529 1 
2726 2531 2530 2 
2727 2532 2530 1 
2728 2533 2531 1 
2729 2534 2532 2 
2730 2535 2534 1 
2731 2535 2533 2 
2732 2536 2535 1 
2733 2537 2536 1 
2734 2537 2569 1 
2735 2538 2537 1 
2736 2539 2538 1 
2737 2539 2562 1 
2738 2540 2538 2 
2739 2541 2477 1 
2740 2541 2539 1 
2741 2542 2539 1 
2742 2542 2560 1 
2743 2542 2561 1 
2744 2543 2541 1 
2745 2543 2558 1 
2746 2543 2559 1 
2747 2544 2543 1 
2748 2544 2542 1 
2749 2545 2544 1 
2750 2545 2699 1 
2751 2545 2547 1 
2752 2546 2544 1 
2753 2546 2695 1 
2754 2546 2548 2 
2755 2547 2557 1 
2756 2549 2547 1 
2757 2550 2549 1 
2758 2551 2550 1 
2759 2552 2550 1 
2760 2553 2550 1 
2761 2554 2549 1 
2762 2555 2549 1 
2763 2556 2547 1 
2764 2563 2536 1 
2765 2564 2536 1 
2766 2565 2534 1 
2767 2566 2533 1 
2768 2567 2532 1 
2769 2568 2531 1 
2770 2570 2603 1 
2771 2571 2570 1 
2772 2572 2570 2 
2773 2573 2571 1 
2774 2573 2583 1 
2775 2573 2584 1 
2776 2574 2571 1 
2777 2574 2577 1 
2778 2574 2581 1 
2779 2574 2582 1 
2780 2575 2571 1 
2781 2575 2601 1 
2782 2576 2573 1 
2783 2576 2577 1 
2784 2576 2580 1 
2785 2576 2578 1 
2786 2577 2427 1 
2787 2578 2431 1 
2788 2579 2578 2 
2789 2585 2587 2 
2790 2586 2585 1 
2791 2586 2588 1 
2792 2586 2589 1 
2793 2586 2590 1 
2794 2588 2598 1 
2795 2588 2599 1 
2796 2589 2597 1 
2797 2591 2588 1 
2798 2592 2589 1 
2799 2592 2591 1 
2800 2593 2591 1 
2801 2594 2593 2 
2802 2595 2591 1 
2803 2596 2589 1 
2804 2601 2600 2 
2805 2602 2601 1 
2806 2602 2613 1 
2807 2603 2602 1 
2808 2603 2614 1 
2809 2604 2602 1 
2810 2604 2611 1 
2811 2604 2612 1 
2812 2605 2604 1 
2813 2605 2609 1 
2814 2605 2610 1 
2815 2606 2605 1 
2816 2606 2607 1 
2817 2608 2607 2 
2818 2615 2629 1 
2819 2615 2617 1 
2820 2615 2618 1 
2821 2616 2615 1 
2822 2616 2619 1 
2823 2617 2627 1 
2824 2617 2628 1 
2825 2620 2619 1 
2826 2620 2617 1 
2827 2621 2618 2 
2828 2622 2620 1 
2829 2622 2716 1 
2830 2623 2620 1 
2831 2623 2717 1 
2832 2624 2623 2 
2833 2625 2619 1 
2834 2626 2619 1 
2835 2630 2637 1 
2836 2630 2638 1 
2837 2630 2639 1 
2838 2631 2630 1 
2839 2632 2631 1 
2840 2632 2702 1 
2841 2633 2632 1 
2842 2634 2632 1 
2843 2635 2631 1 
2844 2636 2631 1 
2845 2640 2652 1 
2846 2640 2653 1 
2847 2641 2640 1 
2848 2642 2640 1 
2849 2642 2650 1 
2850 2642 2651 1 
2851 2643 2641 1 
2852 2644 2642 1 
2853 2644 2649 1 
2854 2644 2647 1 
2855 2645 2643 2 
2856 2646 2459 1 
2857 2646 2644 1 
2858 2646 2648 2 
2859 2647 2460 1 
2860 2654 2647 1 
2861 2656 2655 2 
2862 2656 2657 1 
2863 2657 2669 1 
2864 2658 2657 1 
2865 2659 2657 1 
2866 2659 2667 1 
2867 2659 2668 1 
2868 2660 2658 1 
2869 2661 2660 1 
2870 2661 2659 1 
2871 2662 2661 1 
2872 2663 2661 1 
2873 2664 2663 2 
2874 2665 2660 1 
2875 2666 2660 1 
2876 2670 2431 1 
2877 2670 2678 1 
2878 2670 2679 1 
2879 2671 2670 1 
2880 2671 2677 1 
2881 2672 2671 1 
2882 2673 2672 1 
2883 2674 2672 1 
2884 2675 2672 1 
2885 2676 2671 1 
2886 2680 2693 1 
2887 2680 2694 1 
2888 2681 2680 1 
2889 2681 2692 1 
2890 2682 2680 1 
2891 2682 2687 1 
2892 2683 2681 1 
2893 2684 2681 1 
2894 2684 2688 2 
2895 2685 2682 1 
2896 2685 2683 1 
2897 2685 2690 1 
2898 2685 2691 1 
2899 2686 2682 1 
2900 2686 2725 1 
2901 2689 2687 2 
2902 2695 2697 1 
2903 2696 2695 1 
2904 2696 2709 1 
2905 2696 2698 1 
2906 2696 2699 1 
2907 2697 2707 1 
2908 2697 2708 1 
2909 2700 2697 1 
2910 2700 2698 1 
2911 2701 2699 2 
2912 2702 2449 1 
2913 2702 2700 1 
2914 2703 2448 1 
2915 2703 2700 1 
2916 2704 2703 2 
2917 2705 2698 1 
2918 2706 2698 1 
2919 2711 2710 1 
2920 2711 2722 1 
2921 2711 2723 1 
2922 2712 2710 1 
2923 2713 2711 1 
2924 2713 2720 1 
2925 2713 2721 1 
2926 2714 2712 2 
2927 2714 2726 1 
2928 2715 2717 1 
2929 2715 2713 1 
2930 2715 2719 1 
2931 2716 2715 1 
2932 2716 2718 2 
2933 2724 2717 1 
2934 2726 2725 1 
2935 2727 2710 1 
2936 2727 2726 2 
2937 2728 2727 1 
2938 2729 2725 1 
2939 2730 2725 1 
2940 2731 2417 1 
2941 2731 2739 1 
2942 2731 2740 1 
2943 2732 2731 1 
2944 2732 2737 1 
2945 2732 2738 1 
2946 2733 2732 1 
2947 2734 2733 1 
2948 2735 2733 1 
2949 2736 2733 1 
2950 2741 2754 1 
2951 2741 2755 1 
2952 2742 2741 1 
2953 2742 2753 1 
2954 2743 2741 1 
2955 2743 2747 1 
2956 2743 2748 1 
2957 2744 2742 1 
2958 2744 2776 1 
2959 2745 2742 1 
2960 2745 2749 2 
2961 2745 2771 1 
2962 2746 2743 1 
2963 2746 2744 1 
2964 2746 2751 1 
2965 2746 2752 1 
2966 2747 2517 1 
2967 2748 2513 1 
2968 2750 2748 2 
2969 2756 2757 2 
2970 2757 2616 1 
2971 2758 2757 1 
2972 2759 2758 1 
2973 2759 2769 1 
2974 2759 2770 1 
2975 2760 2758 1 
2976 2760 2767 1 
2977 2760 2768 1 
2978 2761 2758 1 
2979 2761 2618 1 
2980 2761 2402 1 
2981 2762 2759 1 
2982 2763 2762 1 
2983 2763 2760 1 
2984 2764 2762 1 
2985 2765 2764 2 
2986 2766 2762 1 
2987 2772 2771 1 
2988 2773 2771 1 
2989 2773 2777 1 
2990 2774 2772 1 
2991 2774 2778 1 
2992 2775 2772 1 
2993 2775 2806 1 
2994 2775 2779 1 
2995 2776 2772 1 
2996 2776 2780 2 
2997 2777 2804 1 
2998 2777 2805 1 
2999 2778 2803 1 
3000 2779 2778 1 
3001 2779 2529 1 
3002 2781 2777 1 
3003 2781 2800 1 
3004 2781 2801 1 
3005 2781 2802 1 
3006 2782 2778 1 
3007 2783 2782 2 
3008 2784 2782 1 
3009 2785 2784 1 
3010 2785 2798 1 
3011 2785 2799 1 
3012 2786 2785 1 
3013 2786 2787 2 
3014 2786 2788 1 
3015 2787 2797 1 
3016 2789 2787 1 
3017 2790 2788 2 
3018 2791 2789 2 
3019 2791 2790 1 
3020 2792 2484 1 
3021 2792 2791 1 
3022 2793 2792 2 
3023 2794 2790 1 
3024 2795 2789 1 
3025 2796 2788 1 
3026 2807 2775 1 
3027 2808 2774 1 
3028 2809 2774 1 
3029 2810 2773 1 
3030 2811 2773 1 
3031 2812 2784 1 
3032 2813 2825 1 
3033 2813 2826 1 
3034 2814 2813 1 
3035 2814 2817 1 
3036 2814 2824 1 
3037 2815 2813 1 
3038 2815 2687 1 
3039 2815 2818 1 
3040 2816 2814 1 
3041 2816 2818 1 
3042 2816 2822 1 
3043 2816 2823 1 
3044 2817 2593 1 
3045 2819 2686 1 
3046 2819 2818 1 
3047 2820 2819 2 
3048 2821 2818 1 
3049 2827 2817 1 
3050 2828 2417 1 
3051 2829 2828 1 
3052 2829 2842 1 
3053 2830 2828 2 
3054 2831 2829 1 
3055 2831 2418 1 
3056 2832 2829 1 
3057 2832 2840 1 
3058 2832 2841 1 
3059 2833 2831 1 
3060 2833 2838 1 
3061 2833 2839 1 
3062 2834 2832 1 
3063 2834 2833 1 
3064 2835 2764 1 
3065 2835 2834 1 
3066 2835 2886 1 
3067 2836 2763 1 
3068 2836 2834 1 
3069 2836 2837 2 
3070 2843 2608 1 
3071 2844 2606 1 
3072 2844 2843 2 
3073 2844 2848 1 
3074 2845 2590 1 
3075 2845 2843 1 
3076 2845 2847 1 
3077 2846 2845 1 
3078 2849 2857 1 
3079 2849 2858 1 
3080 2850 2849 1 
3081 2850 2932 1 
3082 2851 2849 1 
3083 2852 2851 1 
3084 2853 2851 1 
3085 2854 2851 1 
3086 2855 2850 1 
3087 2856 2850 1 
3088 2859 2867 1 
3089 2859 2868 1 
3090 2860 2575 1 
3091 2860 2859 1 
3092 2861 2859 1 
3093 2862 2861 1 
3094 2863 2861 1 
3095 2864 2861 1 
3096 2865 2860 1 
3097 2866 2860 1 
3098 2869 2520 1 
3099 2869 2877 1 
3100 2869 2878 1 
3101 2870 2869 1 
3102 2871 2870 1 
3103 2872 2871 1 
3104 2873 2871 1 
3105 2874 2871 1 
3106 2875 2870 1 
3107 2876 2870 1 
3108 2880 2879 1 
3109 2880 2592 1 
3110 2881 2880 1 
3111 2882 2880 1 
3112 2883 2879 1 
3113 2884 2879 1 
3114 2885 2879 1 
3115 2886 2894 1 
3116 2886 2895 1 
3117 2886 2887 1 
3118 2888 2887 1 
3119 2889 2888 1 
3120 2890 2888 1 
3121 2891 2888 1 
3122 2892 2887 1 
3123 2893 2887 1 
3124 2896 2897 1 
3125 2896 2899 1 
3126 2896 2909 1 
3127 2896 2898 1 
3128 2897 2663 1 
3129 2898 2907 1 
3130 2898 2908 1 
3131 2899 2662 1 
3132 2900 2897 1 
3133 2901 2900 1 
3134 2901 2898 1 
3135 2902 2899 2 
3136 2903 2684 1 
3137 2903 2901 1 
3138 2903 2910 1 
3139 2904 2901 1 
3140 2905 2900 1 
3141 2906 2900 1 
3142 2911 2641 1 
3143 2912 2911 2 
3144 2912 2645 1 
3145 2913 2662 1 
3146 2913 2912 1 
3147 2914 2913 1 
3148 2915 2913 1 
3149 2916 2911 1 
3150 2918 2917 1 
3151 2919 2446 1 
3152 2919 2918 1 
3153 2920 2919 1 
3154 2921 2919 1 
3155 2922 2918 1 
3156 2923 2918 1 
3157 2924 2917 1 
3158 2925 2917 1 
3159 2926 2917 1 
3160 2928 2462 1 
3161 2928 2927 2 
3162 2929 2928 1 
3163 2930 2929 1 
3164 2930 2940 1 
3165 2930 2941 1 
3166 2931 2929 1 
3167 2931 2938 1 
3168 2931 2939 1 
3169 2932 2464 1 
3170 2932 2929 1 
3171 2933 2930 1 
3172 2933 2937 1 
3173 2934 2931 1 
3174 2934 2933 1 
3175 2934 2442 1 
3176 2935 2446 1 
3177 2935 2933 1 
3178 2936 2935 2 
3179 2942 2747 1 
3180 2942 2950 1 
3181 2942 2951 1 
3182 2943 2942 1 
3183 2943 2948 1 
3184 2943 2949 1 
3185 2944 2943 1 
3186 2944 2947 1 
3187 2945 2944 1 
3188 2946 2944 1 
3189 2952 2965 1 
3190 2953 2952 1 
3191 2953 2963 1 
3192 2953 2964 1 
3193 2954 2952 1 
3194 2954 2957 1 
3195 2954 2961 1 
3196 2954 2962 1 
3197 2955 2952 1 
3198 2955 2656 1 
3199 2955 2966 1 
3200 2956 2953 1 
3201 2956 2957 1 
3202 2956 2958 1 
3203 2956 2960 1 
3204 2957 2585 1 
3205 2958 2590 1 
3206 2959 2958 2 
3207 2967 2622 1 
3208 2968 2967 1 
3209 2969 2968 1 
3210 2970 2969 1 
3211 2971 2969 1 
3212 2972 2969 1 
3213 2973 2968 1 
3214 2974 2968 1 
3215 2975 2967 1 
3216 2976 2967 1 
3217 2978 2459 1 
3218 2978 2977 1 
3219 2979 2977 1 
3220 2980 2979 1 
3221 2981 2979 1 
3222 2982 2979 1 
3223 2983 2978 1 
3224 2984 2978 1 
3225 2985 2977 1 
3226 2986 2977 1 
3227 2987 2683 1 
3228 2988 2987 1 
3229 2989 2988 1 
3230 2990 2988 1 
3231 2991 2988 1 
3232 2992 2987 1 
3233 2993 2987 1 
3234 2994 2658 1 
3235 2994 2999 1 
3236 2994 3000 1 
3237 2995 2994 1 
3238 2995 2997 1 
3239 2995 2998 1 
3240 2996 2995 1 
3241 3002 3001 1 
3242 3003 3001 1 
3243 3004 3003 1 
3244 3005 3003 1 
3245 3006 3003 1 
3246 3007 3002 1 
3247 3008 3002 1 
3248 3009 3001 1 
3249 3010 3001 1 
3250 3011 3024 1 
3251 3011 3025 1 
3252 3012 3011 1 
3253 3012 3023 1 
3254 3013 3011 1 
3255 3013 3018 1 
3256 3013 3017 1 
3257 3014 3012 1 
3258 3014 3089 1 
3259 3015 3088 1 
3260 3015 3012 1 
3261 3015 3019 2 
3262 3016 3014 1 
3263 3016 3013 1 
3264 3016 3021 1 
3265 3016 3022 1 
3266 3017 3331 1 
3267 3017 3428 1 
3268 3018 3431 1 
3269 3020 3018 2 
3270 3026 3027 2 
3271 3027 3177 1 
3272 3028 3027 1 
3273 3029 3028 1 
3274 3029 3039 1 
3275 3029 3040 1 
3276 3030 3028 1 
3277 3030 3037 1 
3278 3030 3038 1 
3279 3031 3028 1 
3280 3031 3178 1 
3281 3031 3270 1 
3282 3032 3029 1 
3283 3033 3030 1 
3284 3033 3032 1 
3285 3033 3121 1 
3286 3034 3032 1 
3287 3034 3120 1 
3288 3035 3034 2 
3289 3036 3032 1 
3290 3042 3041 2 
3291 3043 3042 1 
3292 3044 3043 1 
3293 3044 3047 1 
3294 3044 3054 1 
3295 3044 3055 1 
3296 3045 3043 1 
3297 3045 3048 1 
3298 3045 3052 1 
3299 3045 3053 1 
3300 3046 3043 1 
3301 3048 3047 1 
3302 3048 3303 1 
3303 3049 3302 1 
3304 3049 3047 1 
3305 3050 3049 2 
3306 3051 3047 1 
3307 3056 3057 1 
3308 3056 3060 1 
3309 3056 3058 1 
3310 3056 3059 1 
3311 3057 3069 1 
3312 3057 3070 1 
3313 3058 3067 1 
3314 3058 3068 1 
3315 3059 3246 1 
3316 3060 3247 1 
3317 3061 3057 1 
3318 3062 3061 1 
3319 3062 3058 1 
3320 3063 3060 2 
3321 3064 3061 1 
3322 3065 3064 2 
3323 3066 3061 1 
3324 3071 3111 1 
3325 3072 3071 1 
3326 3072 3110 1 
3327 3073 3071 2 
3328 3074 3072 2 
3329 3074 3078 1 
3330 3074 3077 1 
3331 3075 3073 1 
3332 3075 3078 2 
3333 3075 3109 1 
3334 3076 3073 1 
3335 3076 3079 1 
3336 3076 3107 1 
3337 3076 3108 1 
3338 3077 3141 1 
3339 3078 3106 1 
3340 3079 3112 1 
3341 3080 3077 2 
3342 3081 3079 1 
3343 3082 3081 1 
3344 3082 3105 1 
3345 3083 3081 2 
3346 3084 3082 1 
3347 3084 3392 1 
3348 3085 3082 1 
3349 3085 3103 1 
3350 3085 3104 1 
3351 3085 3087 1 
3352 3086 3087 1 
3353 3086 3084 1 
3354 3086 3101 1 
3355 3086 3102 1 
3356 3088 3087 1 
3357 3089 3087 1 
3358 3090 3088 1 
3359 3090 3099 1 
3360 3090 3100 1 
3361 3091 3089 2 
3362 3092 3090 1 
3363 3092 3097 1 
3364 3092 3098 1 
3365 3093 3092 1 
3366 3094 3093 1 
3367 3095 3093 1 
3368 3096 3093 1 
3369 3113 3348 1 
3370 3114 3113 1 
3371 3114 3127 1 
3372 3114 3117 1 
3373 3115 3118 1 
3374 3115 3113 1 
3375 3115 3125 1 
3376 3115 3126 1 
3377 3116 3114 1 
3378 3116 3123 1 
3379 3116 3124 1 
3380 3116 3118 1 
3381 3117 3347 1 
3382 3119 3117 2 
3383 3120 3118 1 
3384 3121 3118 1 
3385 3122 3121 2 
3386 3129 3128 2 
3387 3129 3379 1 
3388 3130 3129 1 
3389 3131 3130 2 
3390 3131 3168 1 
3391 3132 3130 1 
3392 3132 3167 1 
3393 3133 3131 1 
3394 3133 3166 1 
3395 3134 3132 2 
3396 3134 3165 1 
3397 3135 3134 1 
3398 3135 3133 2 
3399 3136 3135 1 
3400 3136 3137 1 
3401 3136 3163 1 
3402 3136 3164 1 
3403 3137 3169 1 
3404 3138 3137 1 
3405 3139 3138 1 
3406 3139 3162 1 
3407 3140 3138 2 
3408 3141 3139 1 
3409 3142 3139 1 
3410 3142 3160 1 
3411 3142 3161 1 
3412 3143 3141 1 
3413 3143 3158 1 
3414 3143 3159 1 
3415 3144 3143 1 
3416 3144 3142 1 
3417 3145 3144 1 
3418 3145 3299 1 
3419 3145 3147 1 
3420 3146 3144 1 
3421 3146 3295 1 
3422 3146 3148 2 
3423 3147 3157 1 
3424 3149 3147 1 
3425 3150 3149 1 
3426 3151 3150 1 
3427 3152 3150 1 
3428 3153 3150 1 
3429 3154 3149 1 
3430 3155 3149 1 
3431 3156 3147 1 
3432 3170 3203 1 
3433 3171 3170 1 
3434 3172 3170 2 
3435 3173 3171 1 
3436 3173 3183 1 
3437 3173 3184 1 
3438 3174 3171 1 
3439 3174 3177 1 
3440 3174 3181 1 
3441 3174 3182 1 
3442 3175 3171 1 
3443 3175 3201 1 
3444 3176 3173 1 
3445 3176 3177 1 
3446 3176 3180 1 
3447 3176 3178 1 
3448 3179 3178 2 
3449 3185 3187 2 
3450 3186 3185 1 
3451 3186 3188 1 
3452 3186 3189 1 
3453 3186 3190 1 
3454 3188 3198 1 
3455 3188 3199 1 
3456 3189 3197 1 
3457 3190 3445 1 
3458 3191 3188 1 
3459 3192 3189 1 
3460 3192 3191 1 
3461 3193 3191 1 
3462 3193 3417 1 
3463 3194 3193 2 
3464 3195 3191 1 
3465 3196 3189 1 
3466 3201 3200 2 
3467 3202 3201 1 
3468 3202 3213 1 
3469 3203 3202 1 
3470 3203 3214 1 
3471 3204 3202 1 
3472 3204 3211 1 
3473 3204 3212 1 
3474 3205 3204 1 
3475 3205 3209 1 
3476 3205 3210 1 
3477 3206 3205 1 
3478 3206 3207 1 
3479 3206 3444 1 
3480 3208 3207 2 
3481 3208 3443 1 
3482 3215 3229 1 
3483 3215 3217 1 
3484 3215 3218 1 
3485 3216 3215 1 
3486 3216 3219 1 
3487 3216 3357 1 
3488 3217 3227 1 
3489 3217 3228 1 
3490 3218 3361 1 
3491 3220 3219 1 
3492 3220 3217 1 
3493 3221 3218 2 
3494 3222 3220 1 
3495 3222 3316 1 
3496 3223 3220 1 
3497 3223 3317 1 
3498 3224 3223 2 
3499 3225 3219 1 
3500 3226 3219 1 
3501 3230 3237 1 
3502 3230 3238 1 
3503 3230 3239 1 
3504 3231 3230 1 
3505 3232 3231 1 
3506 3232 3302 1 
3507 3233 3232 1 
3508 3234 3232 1 
3509 3235 3231 1 
3510 3236 3231 1 
3511 3240 3252 1 
3512 3240 3253 1 
3513 3241 3240 1 
3514 3242 3240 1 
3515 3242 3250 1 
3516 3242 3251 1 
3517 3243 3241 1 
3518 3244 3242 1 
3519 3244 3249 1 
3520 3244 3247 1 
3521 3245 3243 2 
3522 3246 3244 1 
3523 3246 3248 2 
3524 3254 3247 1 
3525 3256 3255 2 
3526 3256 3257 1 
3527 3257 3269 1 
3528 3258 3257 1 
3529 3259 3257 1 
3530 3259 3267 1 
3531 3259 3268 1 
3532 3260 3258 1 
3533 3261 3260 1 
3534 3261 3259 1 
3535 3262 3261 1 
3536 3263 3261 1 
3537 3264 3263 2 
3538 3265 3260 1 
3539 3266 3260 1 
3540 3270 3278 1 
3541 3270 3279 1 
3542 3271 3270 1 
3543 3271 3277 1 
3544 3272 3271 1 
3545 3273 3272 1 
3546 3274 3272 1 
3547 3275 3272 1 
3548 3276 3271 1 
3549 3280 3293 1 
3550 3280 3294 1 
3551 3281 3280 1 
3552 3281 3292 1 
3553 3282 3280 1 
3554 3282 3287 1 
3555 3283 3281 1 
3556 3284 3281 1 
3557 3284 3288 2 
3558 3285 3282 1 
3559 3285 3283 1 
3560 3285 3290 1 
3561 3285 3291 1 
3562 3286 3282 1 
3563 3286 3419 1 
3564 3286 3325 1 
3565 3287 3415 1 
3566 3289 3287 2 
3567 3295 3297 1 
3568 3296 3295 1 
3569 3296 3309 1 
3570 3296 3298 1 
3571 3296 3299 1 
3572 3297 3307 1 
3573 3297 3308 1 
3574 3300 3297 1 
3575 3300 3298 1 
3576 3301 3299 2 
3577 3302 3300 1 
3578 3303 3300 1 
3579 3304 3303 2 
3580 3305 3298 1 
3581 3306 3298 1 
3582 3310 3327 1 
3583 3311 3310 1 
3584 3311 3322 1 
3585 3311 3323 1 
3586 3312 3310 1 
3587 3313 3311 1 
3588 3313 3320 1 
3589 3313 3321 1 
3590 3314 3312 2 
3591 3314 3326 1 
3592 3315 3317 1 
3593 3315 3313 1 
3594 3315 3319 1 
3595 3316 3315 1 
3596 3316 3318 2 
3597 3324 3317 1 
3598 3325 3329 1 
3599 3325 3330 1 
3600 3326 3325 1 
3601 3326 3327 2 
3602 3328 3327 1 
3603 3331 3339 1 
3604 3331 3340 1 
3605 3332 3331 1 
3606 3332 3337 1 
3607 3332 3338 1 
3608 3333 3332 1 
3609 3334 3333 1 
3610 3335 3333 1 
3611 3336 3333 1 
3612 3341 3354 1 
3613 3341 3355 1 
3614 3342 3341 1 
3615 3342 3353 1 
3616 3343 3341 1 
3617 3343 3347 1 
3618 3343 3348 1 
3619 3344 3342 1 
3620 3344 3376 1 
3621 3345 3342 1 
3622 3345 3349 2 
3623 3345 3371 1 
3624 3346 3343 1 
3625 3346 3344 1 
3626 3346 3351 1 
3627 3346 3352 1 
3628 3350 3348 2 
3629 3356 3357 2 
3630 3358 3357 1 
3631 3359 3358 1 
3632 3359 3369 1 
3633 3359 3370 1 
3634 3360 3358 1 
3635 3360 3367 1 
3636 3360 3368 1 
3637 3361 3358 1 
3638 3361 3002 1 
3639 3362 3359 1 
3640 3363 3362 1 
3641 3363 3360 1 
3642 3363 3436 1 
3643 3364 3362 1 
3644 3364 3435 1 
3645 3365 3364 2 
3646 3366 3362 1 
3647 3372 3371 1 
3648 3373 3371 1 
3649 3373 3377 1 
3650 3373 3410 1 
3651 3373 3411 1 
3652 3374 3372 1 
3653 3374 3378 1 
3654 3374 3408 1 
3655 3374 3409 1 
3656 3375 3372 1 
3657 3375 3406 1 
3658 3375 3407 1 
3659 3375 3379 1 
3660 3376 3372 1 
3661 3376 3380 2 
3662 3377 3404 1 
3663 3377 3405 1 
3664 3378 3403 1 
3665 3379 3378 1 
3666 3381 3377 1 
3667 3381 3400 1 
3668 3381 3401 1 
3669 3381 3402 1 
3670 3382 3378 1 
3671 3383 3382 2 
3672 3384 3382 1 
3673 3384 3412 1 
3674 3385 3384 1 
3675 3385 3398 1 
3676 3385 3399 1 
3677 3386 3385 1 
3678 3386 3387 2 
3679 3386 3388 1 
3680 3387 3397 1 
3681 3389 3387 1 
3682 3390 3388 2 
3683 3391 3389 2 
3684 3391 3390 1 
3685 3392 3391 1 
3686 3393 3392 2 
3687 3394 3390 1 
3688 3395 3389 1 
3689 3396 3388 1 
3690 3413 3425 1 
3691 3413 3426 1 
3692 3414 3413 1 
3693 3414 3417 1 
3694 3414 3424 1 
3695 3415 3413 1 
3696 3415 3418 1 
3697 3416 3414 1 
3698 3416 3418 1 
3699 3416 3422 1 
3700 3416 3423 1 
3701 3417 3427 1 
3702 3419 3418 1 
3703 3420 3419 2 
3704 3421 3418 1 
3705 3429 3428 1 
3706 3429 3442 1 
3707 3430 3428 2 
3708 3431 3429 1 
3709 3432 3429 1 
3710 3432 3440 1 
3711 3432 3441 1 
3712 3433 3431 1 
3713 3433 3438 1 
3714 3433 3439 1 
3715 3434 3432 1 
3716 3434 3433 1 
3717 3435 3434 1 
3718 3436 3434 1 
3719 3436 3437 2 
3720 3444 3443 2 
3721 3445 3443 1 
3722 3446 3445 1 
3723 3447 3445 1 
3724 3448 3444 1 
3725 3449 3457 1 
3726 3449 3458 1 
3727 3450 3449 1 
3728 3450 3532 1 
3729 3451 3449 1 
3730 3452 3451 1 
3731 3453 3451 1 
3732 3454 3451 1 
3733 3455 3450 1 
3734 3456 3450 1 
3735 3459 3467 1 
3736 3459 3468 1 
3737 3460 3175 1 
3738 3460 3459 1 
3739 3461 3459 1 
3740 3462 3461 1 
3741 3463 3461 1 
3742 3464 3461 1 
3743 3465 3460 1 
3744 3466 3460 1 
3745 3469 3120 1 
3746 3469 3477 1 
3747 3469 3478 1 
3748 3470 3469 1 
3749 3471 3470 1 
3750 3472 3471 1 
3751 3473 3471 1 
3752 3474 3471 1 
3753 3475 3470 1 
3754 3476 3470 1 
3755 3480 3479 1 
3756 3480 3192 1 
3757 3481 3480 1 
3758 3482 3480 1 
3759 3483 3479 1 
3760 3484 3479 1 
3761 3485 3479 1 
3762 3486 3435 1 
3763 3486 3494 1 
3764 3486 3495 1 
3765 3486 3487 1 
3766 3488 3487 1 
3767 3489 3488 1 
3768 3490 3488 1 
3769 3491 3488 1 
3770 3492 3487 1 
3771 3493 3487 1 
3772 3496 3497 1 
3773 3496 3499 1 
3774 3496 3509 1 
3775 3496 3498 1 
3776 3497 3263 1 
3777 3498 3507 1 
3778 3498 3508 1 
3779 3499 3262 1 
3780 3500 3497 1 
3781 3501 3500 1 
3782 3501 3498 1 
3783 3502 3499 2 
3784 3503 3284 1 
3785 3503 3501 1 
3786 3503 3510 1 
3787 3504 3501 1 
3788 3505 3500 1 
3789 3506 3500 1 
3790 3511 3241 1 
3791 3512 3511 2 
3792 3512 3245 1 
3793 3513 3262 1 
3794 3513 3512 1 
3795 3514 3513 1 
3796 3515 3513 1 
3797 3516 3511 1 
3798 3518 3517 1 
3799 3519 3046 1 
3800 3519 3518 1 
3801 3520 3519 1 
3802 3521 3519 1 
3803 3522 3518 1 
3804 3523 3518 1 
3805 3524 3517 1 
3806 3525 3517 1 
3807 3526 3517 1 
3808 3528 3062 1 
3809 3528 3527 2 
3810 3529 3528 1 
3811 3530 3529 1 
3812 3530 3540 1 
3813 3530 3541 1 
3814 3531 3529 1 
3815 3531 3538 1 
3816 3531 3539 1 
3817 3532 3064 1 
3818 3532 3529 1 
3819 3533 3530 1 
3820 3533 3537 1 
3821 3534 3531 1 
3822 3534 3533 1 
3823 3534 3042 1 
3824 3535 3046 1 
3825 3535 3533 1 
3826 3536 3535 2 
3827 3542 3347 1 
3828 3542 3550 1 
3829 3542 3551 1 
3830 3543 3542 1 
3831 3543 3548 1 
3832 3543 3549 1 
3833 3544 3543 1 
3834 3544 3547 1 
3835 3545 3544 1 
3836 3546 3544 1 
3837 3552 3565 1 
3838 3553 3552 1 
3839 3553 3563 1 
3840 3553 3564 1 
3841 3554 3552 1 
3842 3554 3557 1 
3843 3554 3561 1 
3844 3554 3562 1 
3845 3555 3552 1 
3846 3555 3256 1 
3847 3555 3566 1 
3848 3556 3553 1 
3849 3556 3557 1 
3850 3556 3558 1 
3851 3556 3560 1 
3852 3557 3185 1 
3853 3558 3190 1 
3854 3559 3558 2 
3855 3567 3222 1 
3856 3568 3567 1 
3857 3569 3568 1 
3858 3570 3569 1 
3859 3571 3569 1 
3860 3572 3569 1 
3861 3573 3568 1 
3862 3574 3568 1 
3863 3575 3567 1 
3864 3576 3567 1 
3865 3578 3059 1 
3866 3578 3577 1 
3867 3579 3577 1 
3868 3580 3579 1 
3869 3581 3579 1 
3870 3582 3579 1 
3871 3583 3578 1 
3872 3584 3578 1 
3873 3585 3577 1 
3874 3586 3577 1 
3875 3587 3283 1 
3876 3588 3587 1 
3877 3589 3588 1 
3878 3590 3588 1 
3879 3591 3588 1 
3880 3592 3587 1 
3881 3593 3587 1 
3882 3594 3258 1 
3883 3594 3599 1 
3884 3594 3600 1 
3885 3595 3594 1 
3886 3595 3597 1 
3887 3595 3598 1 
3888 3596 3595 1 
3889 3602 3601 1 
3890 3603 3601 1 
3891 3604 3603 1 
3892 3605 3603 1 
3893 3606 3603 1 
3894 3607 3602 1 
3895 3608 3602 1 
3896 3609 3601 1 
3897 3610 3601 1 
3898 3611 3624 1 
3899 3611 3625 1 
3900 3612 3611 1 
3901 3612 3623 1 
3902 3613 3611 1 
3903 3613 3618 1 
3904 3613 3617 1 
3905 3614 3612 1 
3906 3614 3689 1 
3907 3615 3688 1 
3908 3615 3612 1 
3909 3615 3619 2 
3910 3616 3614 1 
3911 3616 3613 1 
3912 3616 3621 1 
3913 3616 3622 1 
3914 3620 3618 2 
3915 3626 3627 2 
3916 3627 3777 1 
3917 3628 3627 1 
3918 3629 3628 1 
3919 3629 3639 1 
3920 3629 3640 1 
3921 3630 3628 1 
3922 3630 3637 1 
3923 3630 3638 1 
3924 3631 3628 1 
3925 3631 3778 1 
3926 3632 3629 1 
3927 3633 3630 1 
3928 3633 3632 1 
3929 3633 3721 1 
3930 3634 3632 1 
3931 3634 3720 1 
3932 3635 3634 2 
3933 3636 3632 1 
3934 3642 3641 2 
3935 3643 3642 1 
3936 3644 3643 1 
3937 3644 3647 1 
3938 3644 3654 1 
3939 3644 3655 1 
3940 3645 3643 1 
3941 3645 3648 1 
3942 3645 3652 1 
3943 3645 3653 1 
3944 3646 3643 1 
3945 3648 3647 1 
3946 3649 3647 1 
3947 3650 3649 2 
3948 3651 3647 1 
3949 3656 3657 1 
3950 3656 3660 1 
3951 3656 3658 1 
3952 3656 3659 1 
3953 3657 3669 1 
3954 3657 3670 1 
3955 3658 3667 1 
3956 3658 3668 1 
3957 3661 3657 1 
3958 3662 3661 1 
3959 3662 3658 1 
3960 3663 3660 2 
3961 3664 3661 1 
3962 3665 3664 2 
3963 3666 3661 1 
3964 3671 3711 1 
3965 3672 3671 1 
3966 3672 3710 1 
3967 3673 3671 2 
3968 3674 3672 2 
3969 3674 3678 1 
3970 3674 3677 1 
3971 3675 3673 1 
3972 3675 3678 2 
3973 3675 3709 1 
3974 3676 3673 1 
3975 3676 3679 1 
3976 3676 3707 1 
3977 3676 3708 1 
3978 3677 3741 1 
3979 3678 3706 1 
3980 3679 3712 1 
3981 3680 3677 2 
3982 3681 3679 1 
3983 3682 3681 1 
3984 3682 3705 1 
3985 3683 3681 2 
3986 3684 3682 1 
3987 3685 3682 1 
3988 3685 3703 1 
3989 3685 3704 1 
3990 3685 3687 1 
3991 3686 3687 1 
3992 3686 3684 1 
3993 3686 3701 1 
3994 3686 3702 1 
3995 3688 3687 1 
3996 3689 3687 1 
3997 3690 3688 1 
3998 3690 3699 1 
3999 3690 3700 1 
4000 3691 3689 2 
4001 3692 3690 1 
4002 3692 3697 1 
4003 3692 3698 1 
4004 3693 3692 1 
4005 3694 3693 1 
4006 3695 3693 1 
4007 3696 3693 1 
4008 3714 3713 1 
4009 3714 3727 1 
4010 3714 3717 1 
4011 3715 3718 1 
4012 3715 3713 1 
4013 3715 3725 1 
4014 3715 3726 1 
4015 3716 3714 1 
4016 3716 3723 1 
4017 3716 3724 1 
4018 3716 3718 1 
4019 3719 3717 2 
4020 3720 3718 1 
4021 3721 3718 1 
4022 3722 3721 2 
4023 3729 3728 2 
4024 3730 3729 1 
4025 3731 3730 2 
4026 3731 3768 1 
4027 3732 3730 1 
4028 3732 3767 1 
4029 3733 3731 1 
4030 3733 3766 1 
4031 3734 3732 2 
4032 3734 3765 1 
4033 3735 3734 1 
4034 3735 3733 2 
4035 3736 3735 1 
4036 3736 3737 1 
4037 3736 3763 1 
4038 3736 3764 1 
4039 3737 3769 1 
4040 3738 3737 1 
4041 3739 3738 1 
4042 3739 3762 1 
4043 3740 3738 2 
4044 3741 3739 1 
4045 3742 3739 1 
4046 3742 3760 1 
4047 3742 3761 1 
4048 3743 3741 1 
4049 3743 3758 1 
4050 3743 3759 1 
4051 3744 3743 1 
4052 3744 3742 1 
4053 3745 3744 1 
4054 3745 3747 1 
4055 3746 3744 1 
4056 3746 3748 2 
4057 3747 3757 1 
4058 3749 3747 1 
4059 3750 3749 1 
4060 3751 3750 1 
4061 3752 3750 1 
4062 3753 3750 1 
4063 3754 3749 1 
4064 3755 3749 1 
4065 3756 3747 1 
4066 3770 3803 1 
4067 3771 3770 1 
4068 3772 3770 2 
4069 3773 3771 1 
4070 3773 3783 1 
4071 3773 3784 1 
4072 3774 3771 1 
4073 3774 3777 1 
4074 3774 3781 1 
4075 3774 3782 1 
4076 3775 3771 1 
4077 3775 3801 1 
4078 3776 3773 1 
4079 3776 3777 1 
4080 3776 3780 1 
4081 3776 3778 1 
4082 3779 3778 2 
4083 3785 3787 2 
4084 3786 3785 1 
4085 3786 3788 1 
4086 3786 3789 1 
4087 3786 3790 1 
4088 3788 3798 1 
4089 3788 3799 1 
4090 3789 3797 1 
4091 3791 3788 1 
4092 3792 3789 1 
4093 3792 3791 1 
4094 3793 3791 1 
4095 3794 3793 2 
4096 3795 3791 1 
4097 3796 3789 1 
4098 3801 3800 2 
4099 3802 3801 1 
4100 3803 3802 1 
4101 3804 3802 1 
4102 3805 3804 1 
4103 3806 3805 1 
4104 3807 3806 1 
4105 3808 3807 2 
4106 3808 4043 1 
4107 3809 3805 1 
4108 3810 3805 1 
4109 3811 3804 1 
4110 3812 3804 1 
4111 3813 3802 1 
4112 3814 3803 1 
4113 3815 3829 1 
4114 3815 3817 1 
4115 3815 3818 1 
4116 3816 3815 1 
4117 3816 3819 1 
4118 3816 3957 1 
4119 3817 3827 1 
4120 3817 3828 1 
4121 3818 3961 1 
4122 3820 3819 1 
4123 3820 3817 1 
4124 3821 3818 2 
4125 3822 3820 1 
4126 3822 3916 1 
4127 3823 3820 1 
4128 3823 3917 1 
4129 3824 3823 2 
4130 3825 3819 1 
4131 3826 3819 1 
4132 3830 3837 1 
4133 3830 3838 1 
4134 3830 3839 1 
4135 3831 3830 1 
4136 3832 3831 1 
4137 3832 3902 1 
4138 3833 3832 1 
4139 3834 3832 1 
4140 3835 3831 1 
4141 3836 3831 1 
4142 3840 3852 1 
4143 3840 3853 1 
4144 3841 3840 1 
4145 3842 3840 1 
4146 3842 3850 1 
4147 3842 3851 1 
4148 3843 3841 1 
4149 3844 3842 1 
4150 3844 3849 1 
4151 3844 3847 1 
4152 3845 3843 2 
4153 3846 3659 1 
4154 3846 3844 1 
4155 3846 3848 2 
4156 3847 3660 1 
4157 3854 3847 1 
4158 3856 3855 2 
4159 3856 3857 1 
4160 3857 3869 1 
4161 3858 3857 1 
4162 3859 3857 1 
4163 3859 3867 1 
4164 3859 3868 1 
4165 3860 3858 1 
4166 3861 3860 1 
4167 3861 3859 1 
4168 3862 3861 1 
4169 3863 3861 1 
4170 3864 3863 2 
4171 3865 3860 1 
4172 3866 3860 1 
4173 3870 3631 1 
4174 3870 3878 1 
4175 3870 3879 1 
4176 3871 3870 1 
4177 3871 3877 1 
4178 3872 3871 1 
4179 3873 3872 1 
4180 3874 3872 1 
4181 3875 3872 1 
4182 3876 3871 1 
4183 3880 3893 1 
4184 3880 3894 1 
4185 3881 3880 1 
4186 3881 3892 1 
4187 3882 3880 1 
4188 3882 3887 1 
4189 3883 3881 1 
4190 3884 3881 1 
4191 3884 3888 2 
4192 3885 3882 1 
4193 3885 3883 1 
4194 3885 3890 1 
4195 3885 3891 1 
4196 3886 3882 1 
4197 3886 4019 1 
4198 3886 3925 1 
4199 3887 4015 1 
4200 3889 3887 2 
4201 3895 3746 1 
4202 3895 3897 1 
4203 3896 3895 1 
4204 3896 3909 1 
4205 3896 3898 1 
4206 3896 3899 1 
4207 3897 3907 1 
4208 3897 3908 1 
4209 3899 3745 1 
4210 3900 3897 1 
4211 3900 3898 1 
4212 3901 3899 2 
4213 3902 3649 1 
4214 3902 3900 1 
4215 3903 3648 1 
4216 3903 3900 1 
4217 3904 3903 2 
4218 3905 3898 1 
4219 3906 3898 1 
4220 3910 3927 1 
4221 3911 3910 1 
4222 3911 3922 1 
4223 3911 3923 1 
4224 3912 3910 1 
4225 3913 3911 1 
4226 3913 3920 1 
4227 3913 3921 1 
4228 3914 3912 2 
4229 3914 3926 1 
4230 3915 3917 1 
4231 3915 3913 1 
4232 3915 3919 1 
4233 3916 3915 1 
4234 3916 3918 2 
4235 3924 3917 1 
4236 3925 3929 1 
4237 3925 3930 1 
4238 3926 3925 1 
4239 3926 3927 2 
4240 3928 3927 1 
4241 3931 3617 1 
4242 3931 3939 1 
4243 3931 3940 1 
4244 3932 3931 1 
4245 3932 3937 1 
4246 3932 3938 1 
4247 3933 3932 1 
4248 3934 3933 1 
4249 3935 3933 1 
4250 3936 3933 1 
4251 3941 3954 1 
4252 3941 3955 1 
4253 3942 3941 1 
4254 3942 3953 1 
4255 3943 3941 1 
4256 3943 3947 1 
4257 3943 3948 1 
4258 3944 3942 1 
4259 3944 3976 1 
4260 3945 3942 1 
4261 3945 3949 2 
4262 3945 3971 1 
4263 3946 3943 1 
4264 3946 3944 1 
4265 3946 3951 1 
4266 3946 3952 1 
4267 3947 3717 1 
4268 3948 3713 1 
4269 3950 3948 2 
4270 3956 3957 2 
4271 3958 3957 1 
4272 3959 3958 1 
4273 3959 3969 1 
4274 3959 3970 1 
4275 3960 3958 1 
4276 3960 3967 1 
4277 3960 3968 1 
4278 3961 3958 1 
4279 3961 3602 1 
4280 3962 3959 1 
4281 3963 3962 1 
4282 3963 3960 1 
4283 3963 4036 1 
4284 3964 3962 1 
4285 3964 4035 1 
4286 3965 3964 2 
4287 3966 3962 1 
4288 3972 3971 1 
4289 3973 3971 1 
4290 3973 3977 1 
4291 3973 4010 1 
4292 3973 4011 1 
4293 3974 3972 1 
4294 3974 3978 1 
4295 3974 4008 1 
4296 3974 4009 1 
4297 3975 3972 1 
4298 3975 4006 1 
4299 3975 4007 1 
4300 3975 3979 1 
4301 3976 3972 1 
4302 3976 3980 2 
4303 3977 4004 1 
4304 3977 4005 1 
4305 3978 4003 1 
4306 3979 3978 1 
4307 3979 3729 1 
4308 3981 3977 1 
4309 3981 4000 1 
4310 3981 4001 1 
4311 3981 4002 1 
4312 3982 3978 1 
4313 3983 3982 2 
4314 3984 3982 1 
4315 3984 4012 1 
4316 3985 3984 1 
4317 3985 3998 1 
4318 3985 3999 1 
4319 3986 3985 1 
4320 3986 3987 2 
4321 3986 3988 1 
4322 3987 3997 1 
4323 3989 3987 1 
4324 3990 3988 2 
4325 3991 3989 2 
4326 3991 3990 1 
4327 3992 3684 1 
4328 3992 3991 1 
4329 3993 3992 2 
4330 3994 3990 1 
4331 3995 3989 1 
4332 3996 3988 1 
4333 4013 4025 1 
4334 4013 4026 1 
4335 4014 4013 1 
4336 4014 4017 1 
4337 4014 4024 1 
4338 4015 4013 1 
4339 4015 4018 1 
4340 4016 4014 1 
4341 4016 4018 1 
4342 4016 4022 1 
4343 4016 4023 1 
4344 4017 3793 1 
4345 4017 4027 1 
4346 4019 4018 1 
4347 4020 4019 2 
4348 4021 4018 1 
4349 4028 3617 1 
4350 4029 4028 1 
4351 4029 4042 1 
4352 4030 4028 2 
4353 4031 4029 1 
4354 4031 3618 1 
4355 4032 4029 1 
4356 4032 4040 1 
4357 4032 4041 1 
4358 4033 4031 1 
4359 4033 4038 1 
4360 4033 4039 1 
4361 4034 4032 1 
4362 4034 4033 1 
4363 4035 4034 1 
4364 4036 4034 1 
4365 4036 4037 2 
4366 4044 3806 1 
4367 4044 4043 2 
4368 4045 3790 1 
4369 4045 4043 1 
4370 4046 4045 1 
4371 4047 4045 1 
4372 4048 4044 1 
4373 4049 4057 1 
4374 4049 4058 1 
4375 4050 4049 1 
4376 4050 4132 1 
4377 4051 4049 1 
4378 4052 4051 1 
4379 4053 4051 1 
4380 4054 4051 1 
4381 4055 4050 1 
4382 4056 4050 1 
4383 4059 4067 1 
4384 4059 4068 1 
4385 4060 3775 1 
4386 4060 4059 1 
4387 4061 4059 1 
4388 4062 4061 1 
4389 4063 4061 1 
4390 4064 4061 1 
4391 4065 4060 1 
4392 4066 4060 1 
4393 4069 3720 1 
4394 4069 4077 1 
4395 4069 4078 1 
4396 4070 4069 1 
4397 4071 4070 1 
4398 4072 4071 1 
4399 4073 4071 1 
4400 4074 4071 1 
4401 4075 4070 1 
4402 4076 4070 1 
4403 4080 4079 1 
4404 4080 3792 1 
4405 4081 4080 1 
4406 4082 4080 1 
4407 4083 4079 1 
4408 4084 4079 1 
4409 4085 4079 1 
4410 4086 4035 1 
4411 4086 4094 1 
4412 4086 4095 1 
4413 4086 4087 1 
4414 4088 4087 1 
4415 4089 4088 1 
4416 4090 4088 1 
4417 4091 4088 1 
4418 4092 4087 1 
4419 4093 4087 1 
4420 4096 4097 1 
4421 4096 4099 1 
4422 4096 4109 1 
4423 4096 4098 1 
4424 4097 3863 1 
4425 4098 4107 1 
4426 4098 4108 1 
4427 4099 3862 1 
4428 4100 4097 1 
4429 4101 4100 1 
4430 4101 4098 1 
4431 4102 4099 2 
4432 4103 3884 1 
4433 4103 4101 1 
4434 4103 4110 1 
4435 4104 4101 1 
4436 4105 4100 1 
4437 4106 4100 1 
4438 4111 3841 1 
4439 4112 4111 2 
4440 4112 3845 1 
4441 4113 3862 1 
4442 4113 4112 1 
4443 4114 4113 1 
4444 4115 4113 1 
4445 4116 4111 1 
4446 4118 4117 1 
4447 4119 3646 1 
4448 4119 4118 1 
4449 4120 4119 1 
4450 4121 4119 1 
4451 4122 4118 1 
4452 4123 4118 1 
4453 4124 4117 1 
4454 4125 4117 1 
4455 4126 4117 1 
4456 4128 3662 1 
4457 4128 4127 2 
4458 4129 4128 1 
4459 4130 4129 1 
4460 4130 4140 1 
4461 4130 4141 1 
4462 4131 4129 1 
4463 4131 4138 1 
4464 4131 4139 1 
4465 4132 3664 1 
4466 4132 4129 1 
4467 4133 4130 1 
4468 4133 4137 1 
4469 4134 4131 1 
4470 4134 4133 1 
4471 4134 3642 1 
4472 4135 3646 1 
4473 4135 4133 1 
4474 4136 4135 2 
4475 4142 3947 1 
4476 4143 4142 1 
4477 4144 4143 1 
4478 4145 4144 1 
4479 4146 4144 1 
4480 4147 4144 1 
4481 4148 4143 1 
4482 4149 4143 1 
4483 4150 4142 1 
4484 4151 4142 1 
4485 4152 4165 1 
4486 4153 4152 1 
4487 4153 4163 1 
4488 4153 4164 1 
4489 4154 4152 1 
4490 4154 4157 1 
4491 4154 4161 1 
4492 4154 4162 1 
4493 4155 4152 1 
4494 4155 3856 1 
4495 4155 4166 1 
4496 4156 4153 1 
4497 4156 4157 1 
4498 4156 4158 1 
4499 4156 4160 1 
4500 4157 3785 1 
4501 4158 3790 1 
4502 4159 4158 2 
4503 4167 3822 1 
4504 4168 4167 1 
4505 4169 4168 1 
4506 4170 4169 1 
4507 4171 4169 1 
4508 4172 4169 1 
4509 4173 4168 1 
4510 4174 4168 1 
4511 4175 4167 1 
4512 4176 4167 1 
4513 4178 3659 1 
4514 4178 4177 1 
4515 4179 4177 1 
4516 4180 4179 1 
4517 4181 4179 1 
4518 4182 4179 1 
4519 4183 4178 1 
4520 4184 4178 1 
4521 4185 4177 1 
4522 4186 4177 1 
4523 4187 3883 1 
4524 4188 4187 1 
4525 4189 4188 1 
4526 4190 4188 1 
4527 4191 4188 1 
4528 4192 4187 1 
4529 4193 4187 1 
4530 4194 3858 1 
4531 4194 4199 1 
4532 4194 4200 1 
4533 4195 4194 1 
4534 4195 4197 1 
4535 4195 4198 1 
4536 4196 4195 1 
@<TRIPOS>SUBSTRUCTURE
1 NIL_1 1 RESIDUE 1 A NIL 1
2 NIL_2 11 RESIDUE 1 A NIL 1
3 NIL_3 26 RESIDUE 1 A NIL 1
4 NIL_4 41 RESIDUE 1 A NIL 1
5 NIL_5 56 RESIDUE 1 A NIL 1
6 NIL_6 71 RESIDUE 1 A NIL 1
7 NIL_7 113 RESIDUE 1 A NIL 1
8 NIL_8 128 RESIDUE 1 A NIL 1
9 NIL_9 170 RESIDUE 1 A NIL 1
10 NIL_10 185 RESIDUE 1 A NIL 1
11 NIL_11 200 RESIDUE 1 A NIL 1
12 NIL_12 215 RESIDUE 1 A NIL 1
13 NIL_13 230 RESIDUE 1 A NIL 1
14 NIL_14 240 RESIDUE 1 A NIL 1
15 NIL_15 255 RESIDUE 1 A NIL 1
16 NIL_16 270 RESIDUE 1 A NIL 1
17 NIL_17 280 RESIDUE 1 A NIL 1
18 NIL_18 295 RESIDUE 1 A NIL 1
19 NIL_19 310 RESIDUE 1 A NIL 1
20 NIL_20 325 RESIDUE 1 A NIL 1
21 NIL_21 331 RESIDUE 1 A NIL 1
22 NIL_22 341 RESIDUE 1 A NIL 1
23 NIL_23 356 RESIDUE 1 A NIL 1
24 NIL_24 371 RESIDUE 1 A NIL 1
25 NIL_25 413 RESIDUE 1 A NIL 1
26 NIL_26 428 RESIDUE 1 A NIL 1
27 NIL_27 443 RESIDUE 1 A NIL 1
28 NIL_28 449 RESIDUE 1 A NIL 1
29 NIL_29 459 RESIDUE 1 A NIL 1
30 NIL_30 469 RESIDUE 1 A NIL 1
31 NIL_31 479 RESIDUE 1 A NIL 1
32 NIL_32 486 RESIDUE 1 A NIL 1
33 NIL_33 496 RESIDUE 1 A NIL 1
34 NIL_34 511 RESIDUE 1 A NIL 1
35 NIL_35 517 RESIDUE 1 A NIL 1
36 NIL_36 527 RESIDUE 1 A NIL 1
37 NIL_37 542 RESIDUE 1 A NIL 1
38 NIL_38 552 RESIDUE 1 A NIL 1
39 NIL_39 567 RESIDUE 1 A NIL 1
40 NIL_40 577 RESIDUE 1 A NIL 1
41 NIL_41 587 RESIDUE 1 A NIL 1
42 NIL_42 594 RESIDUE 1 A NIL 1
43 NIL_43 601 RESIDUE 1 B NIL 1
44 NIL_44 611 RESIDUE 1 B NIL 1
45 NIL_45 626 RESIDUE 1 B NIL 1
46 NIL_46 641 RESIDUE 1 B NIL 1
47 NIL_47 656 RESIDUE 1 B NIL 1
48 NIL_48 671 RESIDUE 1 B NIL 1
49 NIL_49 713 RESIDUE 1 B NIL 1
50 NIL_50 728 RESIDUE 1 B NIL 1
51 NIL_51 770 RESIDUE 1 B NIL 1
52 NIL_52 785 RESIDUE 1 B NIL 1
53 NIL_53 800 RESIDUE 1 B NIL 1
54 NIL_54 815 RESIDUE 1 B NIL 1
55 NIL_55 830 RESIDUE 1 B NIL 1
56 NIL_56 840 RESIDUE 1 B NIL 1
57 NIL_57 855 RESIDUE 1 B NIL 1
58 NIL_58 870 RESIDUE 1 B NIL 1
59 NIL_59 880 RESIDUE 1 B NIL 1
60 NIL_60 895 RESIDUE 1 B NIL 1
61 NIL_61 910 RESIDUE 1 B NIL 1
62 NIL_62 925 RESIDUE 1 B NIL 1
63 NIL_63 931 RESIDUE 1 B NIL 1
64 NIL_64 941 RESIDUE 1 B NIL 1
65 NIL_65 956 RESIDUE 1 B NIL 1
66 NIL_66 971 RESIDUE 1 B NIL 1
67 NIL_67 1013 RESIDUE 1 B NIL 1
68 NIL_68 1028 RESIDUE 1 B NIL 1
69 NIL_69 1043 RESIDUE 1 B NIL 1
70 NIL_70 1049 RESIDUE 1 B NIL 1
71 NIL_71 1059 RESIDUE 1 B NIL 1
72 NIL_72 1069 RESIDUE 1 B NIL 1
73 NIL_73 1079 RESIDUE 1 B NIL 1
74 NIL_74 1086 RESIDUE 1 B NIL 1
75 NIL_75 1096 RESIDUE 1 B NIL 1
76 NIL_76 1111 RESIDUE 1 B NIL 1
77 NIL_77 1117 RESIDUE 1 B NIL 1
78 NIL_78 1127 RESIDUE 1 B NIL 1
79 NIL_79 1142 RESIDUE 1 B NIL 1
80 NIL_80 1152 RESIDUE 1 B NIL 1
81 NIL_81 1167 RESIDUE 1 B NIL 1
82 NIL_82 1177 RESIDUE 1 B NIL 1
83 NIL_83 1187 RESIDUE 1 B NIL 1
84 NIL_84 1194 RESIDUE 1 B NIL 1
85 NIL_85 1201 RESIDUE 1 C NIL 1
86 NIL_86 1211 RESIDUE 1 C NIL 1
87 NIL_87 1226 RESIDUE 1 C NIL 1
88 NIL_88 1241 RESIDUE 1 C NIL 1
89 NIL_89 1256 RESIDUE 1 C NIL 1
90 NIL_90 1271 RESIDUE 1 C NIL 1
91 NIL_91 1313 RESIDUE 1 C NIL 1
92 NIL_92 1328 RESIDUE 1 C NIL 1
93 NIL_93 1370 RESIDUE 1 C NIL 1
94 NIL_94 1385 RESIDUE 1 C NIL 1
95 NIL_95 1400 RESIDUE 1 C NIL 1
96 NIL_96 1415 RESIDUE 1 C NIL 1
97 NIL_97 1430 RESIDUE 1 C NIL 1
98 NIL_98 1440 RESIDUE 1 C NIL 1
99 NIL_99 1455 RESIDUE 1 C NIL 1
100 NIL_100 1470 RESIDUE 1 C NIL 1
101 NIL_101 1480 RESIDUE 1 C NIL 1
102 NIL_102 1495 RESIDUE 1 C NIL 1
103 NIL_103 1510 RESIDUE 1 C NIL 1
104 NIL_104 1525 RESIDUE 1 C NIL 1
105 NIL_105 1531 RESIDUE 1 C NIL 1
106 NIL_106 1541 RESIDUE 1 C NIL 1
107 NIL_107 1556 RESIDUE 1 C NIL 1
108 NIL_108 1571 RESIDUE 1 C NIL 1
109 NIL_109 1613 RESIDUE 1 C NIL 1
110 NIL_110 1628 RESIDUE 1 C NIL 1
111 NIL_111 1643 RESIDUE 1 C NIL 1
112 NIL_112 1649 RESIDUE 1 C NIL 1
113 NIL_113 1659 RESIDUE 1 C NIL 1
114 NIL_114 1669 RESIDUE 1 C NIL 1
115 NIL_115 1679 RESIDUE 1 C NIL 1
116 NIL_116 1686 RESIDUE 1 C NIL 1
117 NIL_117 1696 RESIDUE 1 C NIL 1
118 NIL_118 1711 RESIDUE 1 C NIL 1
119 NIL_119 1717 RESIDUE 1 C NIL 1
120 NIL_120 1727 RESIDUE 1 C NIL 1
121 NIL_121 1742 RESIDUE 1 C NIL 1
122 NIL_122 1752 RESIDUE 1 C NIL 1
123 NIL_123 1767 RESIDUE 1 C NIL 1
124 NIL_124 1777 RESIDUE 1 C NIL 1
125 NIL_125 1787 RESIDUE 1 C NIL 1
126 NIL_126 1794 RESIDUE 1 C NIL 1
127 NIL_127 1801 RESIDUE 1 D NIL 1
128 NIL_128 1811 RESIDUE 1 D NIL 1
129 NIL_129 1826 RESIDUE 1 D NIL 1
130 NIL_130 1841 RESIDUE 1 D NIL 1
131 NIL_131 1856 RESIDUE 1 D NIL 1
132 NIL_132 1871 RESIDUE 1 D NIL 1
133 NIL_133 1913 RESIDUE 1 D NIL 1
134 NIL_134 1928 RESIDUE 1 D NIL 1
135 NIL_135 1970 RESIDUE 1 D NIL 1
136 NIL_136 1985 RESIDUE 1 D NIL 1
137 NIL_137 2000 RESIDUE 1 D NIL 1
138 NIL_138 2015 RESIDUE 1 D NIL 1
139 NIL_139 2030 RESIDUE 1 D NIL 1
140 NIL_140 2040 RESIDUE 1 D NIL 1
141 NIL_141 2055 RESIDUE 1 D NIL 1
142 NIL_142 2070 RESIDUE 1 D NIL 1
143 NIL_143 2080 RESIDUE 1 D NIL 1
144 NIL_144 2095 RESIDUE 1 D NIL 1
145 NIL_145 2110 RESIDUE 1 D NIL 1
146 NIL_146 2125 RESIDUE 1 D NIL 1
147 NIL_147 2131 RESIDUE 1 D NIL 1
148 NIL_148 2141 RESIDUE 1 D NIL 1
149 NIL_149 2156 RESIDUE 1 D NIL 1
150 NIL_150 2171 RESIDUE 1 D NIL 1
151 NIL_151 2213 RESIDUE 1 D NIL 1
152 NIL_152 2228 RESIDUE 1 D NIL 1
153 NIL_153 2243 RESIDUE 1 D NIL 1
154 NIL_154 2249 RESIDUE 1 D NIL 1
155 NIL_155 2259 RESIDUE 1 D NIL 1
156 NIL_156 2269 RESIDUE 1 D NIL 1
157 NIL_157 2279 RESIDUE 1 D NIL 1
158 NIL_158 2286 RESIDUE 1 D NIL 1
159 NIL_159 2296 RESIDUE 1 D NIL 1
160 NIL_160 2311 RESIDUE 1 D NIL 1
161 NIL_161 2317 RESIDUE 1 D NIL 1
162 NIL_162 2327 RESIDUE 1 D NIL 1
163 NIL_163 2342 RESIDUE 1 D NIL 1
164 NIL_164 2352 RESIDUE 1 D NIL 1
165 NIL_165 2367 RESIDUE 1 D NIL 1
166 NIL_166 2377 RESIDUE 1 D NIL 1
167 NIL_167 2387 RESIDUE 1 D NIL 1
168 NIL_168 2394 RESIDUE 1 D NIL 1
169 NIL_169 2401 RESIDUE 1 E NIL 1
170 NIL_170 2411 RESIDUE 1 E NIL 1
171 NIL_171 2426 RESIDUE 1 E NIL 1
172 NIL_172 2441 RESIDUE 1 E NIL 1
173 NIL_173 2456 RESIDUE 1 E NIL 1
174 NIL_174 2471 RESIDUE 1 E NIL 1
175 NIL_175 2513 RESIDUE 1 E NIL 1
176 NIL_176 2528 RESIDUE 1 E NIL 1
177 NIL_177 2570 RESIDUE 1 E NIL 1
178 NIL_178 2585 RESIDUE 1 E NIL 1
179 NIL_179 2600 RESIDUE 1 E NIL 1
180 NIL_180 2615 RESIDUE 1 E NIL 1
181 NIL_181 2630 RESIDUE 1 E NIL 1
182 NIL_182 2640 RESIDUE 1 E NIL 1
183 NIL_183 2655 RESIDUE 1 E NIL 1
184 NIL_184 2670 RESIDUE 1 E NIL 1
185 NIL_185 2680 RESIDUE 1 E NIL 1
186 NIL_186 2695 RESIDUE 1 E NIL 1
187 NIL_187 2710 RESIDUE 1 E NIL 1
188 NIL_188 2725 RESIDUE 1 E NIL 1
189 NIL_189 2731 RESIDUE 1 E NIL 1
190 NIL_190 2741 RESIDUE 1 E NIL 1
191 NIL_191 2756 RESIDUE 1 E NIL 1
192 NIL_192 2771 RESIDUE 1 E NIL 1
193 NIL_193 2813 RESIDUE 1 E NIL 1
194 NIL_194 2828 RESIDUE 1 E NIL 1
195 NIL_195 2843 RESIDUE 1 E NIL 1
196 NIL_196 2849 RESIDUE 1 E NIL 1
197 NIL_197 2859 RESIDUE 1 E NIL 1
198 NIL_198 2869 RESIDUE 1 E NIL 1
199 NIL_199 2879 RESIDUE 1 E NIL 1
200 NIL_200 2886 RESIDUE 1 E NIL 1
201 NIL_201 2896 RESIDUE 1 E NIL 1
202 NIL_202 2911 RESIDUE 1 E NIL 1
203 NIL_203 2917 RESIDUE 1 E NIL 1
204 NIL_204 2927 RESIDUE 1 E NIL 1
205 NIL_205 2942 RESIDUE 1 E NIL 1
206 NIL_206 2952 RESIDUE 1 E NIL 1
207 NIL_207 2967 RESIDUE 1 E NIL 1
208 NIL_208 2977 RESIDUE 1 E NIL 1
209 NIL_209 2987 RESIDUE 1 E NIL 1
210 NIL_210 2994 RESIDUE 1 E NIL 1
211 NIL_211 3001 RESIDUE 1 F NIL 1
212 NIL_212 3011 RESIDUE 1 F NIL 1
213 NIL_213 3026 RESIDUE 1 F NIL 1
214 NIL_214 3041 RESIDUE 1 F NIL 1
215 NIL_215 3056 RESIDUE 1 F NIL 1
216 NIL_216 3071 RESIDUE 1 F NIL 1
217 NIL_217 3113 RESIDUE 1 F NIL 1
218 NIL_218 3128 RESIDUE 1 F NIL 1
219 NIL_219 3170 RESIDUE 1 F NIL 1
220 NIL_220 3185 RESIDUE 1 F NIL 1
221 NIL_221 3200 RESIDUE 1 F NIL 1
222 NIL_222 3215 RESIDUE 1 F NIL 1
223 NIL_223 3230 RESIDUE 1 F NIL 1
224 NIL_224 3240 RESIDUE 1 F NIL 1
225 NIL_225 3255 RESIDUE 1 F NIL 1
226 NIL_226 3270 RESIDUE 1 F NIL 1
227 NIL_227 3280 RESIDUE 1 F NIL 1
228 NIL_228 3295 RESIDUE 1 F NIL 1
229 NIL_229 3310 RESIDUE 1 F NIL 1
230 NIL_230 3325 RESIDUE 1 F NIL 1
231 NIL_231 3331 RESIDUE 1 F NIL 1
232 NIL_232 3341 RESIDUE 1 F NIL 1
233 NIL_233 3356 RESIDUE 1 F NIL 1
234 NIL_234 3371 RESIDUE 1 F NIL 1
235 NIL_235 3413 RESIDUE 1 F NIL 1
236 NIL_236 3428 RESIDUE 1 F NIL 1
237 NIL_237 3443 RESIDUE 1 F NIL 1
238 NIL_238 3449 RESIDUE 1 F NIL 1
239 NIL_239 3459 RESIDUE 1 F NIL 1
240 NIL_240 3469 RESIDUE 1 F NIL 1
241 NIL_241 3479 RESIDUE 1 F NIL 1
242 NIL_242 3486 RESIDUE 1 F NIL 1
243 NIL_243 3496 RESIDUE 1 F NIL 1
244 NIL_244 3511 RESIDUE 1 F NIL 1
245 NIL_245 3517 RESIDUE 1 F NIL 1
246 NIL_246 3527 RESIDUE 1 F NIL 1
247 NIL_247 3542 RESIDUE 1 F NIL 1
248 NIL_248 3552 RESIDUE 1 F NIL 1
249 NIL_249 3567 RESIDUE 1 F NIL 1
250 NIL_250 3577 RESIDUE 1 F NIL 1
251 NIL_251 3587 RESIDUE 1 F NIL 1
252 NIL_252 3594 RESIDUE 1 F NIL 1
253 NIL_253 3601 RESIDUE 1 G NIL 1
254 NIL_254 3611 RESIDUE 1 G NIL 1
255 NIL_255 3626 RESIDUE 1 G NIL 1
256 NIL_256 3641 RESIDUE 1 G NIL 1
257 NIL_257 3656 RESIDUE 1 G NIL 1
258 NIL_258 3671 RESIDUE 1 G NIL 1
259 NIL_259 3713 RESIDUE 1 G NIL 1
260 NIL_260 3728 RESIDUE 1 G NIL 1
261 NIL_261 3770 RESIDUE 1 G NIL 1
262 NIL_262 3785 RESIDUE 1 G NIL 1
263 NIL_263 3800 RESIDUE 1 G NIL 1
264 NIL_264 3815 RESIDUE 1 G NIL 1
265 NIL_265 3830 RESIDUE 1 G NIL 1
266 NIL_266 3840 RESIDUE 1 G NIL 1
267 NIL_267 3855 RESIDUE 1 G NIL 1
268 NIL_268 3870 RESIDUE 1 G NIL 1
269 NIL_269 3880 RESIDUE 1 G NIL 1
270 NIL_270 3895 RESIDUE 1 G NIL 1
271 NIL_271 3910 RESIDUE 1 G NIL 1
272 NIL_272 3925 RESIDUE 1 G NIL 1
273 NIL_273 3931 RESIDUE 1 G NIL 1
274 NIL_274 3941 RESIDUE 1 G NIL 1
275 NIL_275 3956 RESIDUE 1 G NIL 1
276 NIL_276 3971 RESIDUE 1 G NIL 1
277 NIL_277 4013 RESIDUE 1 G NIL 1
278 NIL_278 4028 RESIDUE 1 G NIL 1
279 NIL_279 4043 RESIDUE 1 G NIL 1
280 NIL_280 4049 RESIDUE 1 G NIL 1
281 NIL_281 4059 RESIDUE 1 G NIL 1
282 NIL_282 4069 RESIDUE 1 G NIL 1
283 NIL_283 4079 RESIDUE 1 G NIL 1
284 NIL_284 4086 RESIDUE 1 G NIL 1
285 NIL_285 4096 RESIDUE 1 G NIL 1
286 NIL_286 4111 RESIDUE 1 G NIL 1
287 NIL_287 4117 RESIDUE 1 G NIL 1
288 NIL_288 4127 RESIDUE 1 G NIL 1
289 NIL_289 4142 RESIDUE 1 G NIL 1
290 NIL_290 4152 RESIDUE 1 G NIL 1
291 NIL_291 4167 RESIDUE 1 G NIL 1
292 NIL_292 4177 RESIDUE 1 G NIL 1
293 NIL_293 4187 RESIDUE 1 G NIL 1
294 NIL_294 4194 RESIDUE 1 G NIL 1
