@<TRIPOS>MOLECULE
NIL
600 648 42 0 0
POLYMER
CHARGES


@<TRIPOS>ATOM
1 C_1479 1.97745 6.04019 1.20371 C.3 1 NIL_1    0.000
2 C_1478 0.508 6.236 0.759 C.3 1 NIL_1    0.000
3 C_3530 2.480 4.594 1.050 C.3 1 NIL_1    0.000
4 H_35301 1.869 3.902 1.633 H 1 NIL_1    0.000
5 H_35302 3.510 4.523 1.408 H 1 NIL_1    0.000
6 H_35303 2.465 4.289 0.002 H 1 NIL_1    0.000
7 H_14781 0.289 7.307 0.779 H 1 NIL_1    0.000
8 H_14782 0.416 5.932 -0.281 H 1 NIL_1    0.000
9 H_14791 2.103 6.348 2.244 H 1 NIL_1    0.000
10 H_14792 2.612 6.697 0.605 H 1 NIL_1    0.000
11 C_1303 -1.172 6.184 -9.175 C.3 2 NIL_2    0.000
12 C_1302 -1.896 5.676 -10.426 C.3 2 NIL_2    0.000
13 C_1304 -0.606 4.912 -8.486 C.3 2 NIL_2    0.000
14 N -1.137 4.514 -10.829 N.am 2 NIL_2    0.000
15 C_1307 -2.101 6.746 -11.471 C.2 2 NIL_2    0.000
16 C_1305 -0.747 3.824 -9.602 C.3 2 NIL_2    0.000
17 N 0.806 5.193 -8.050 N.am 2 NIL_2    0.000
18 C_1316 -1.533 4.553 -7.312 C.2 2 NIL_2    0.000
19 O -2.700 7.762 -11.164 O.2 2 NIL_2    0.000
20 O -2.566 3.922 -7.437 O.2 2 NIL_2    0.000
21 H_13051 0.169 3.265 -9.755 H 2 NIL_2    0.000
22 H_13052 -1.532 3.099 -9.376 H 2 NIL_2    0.000
23 H_1302 -2.895 5.327 -10.147 H 2 NIL_2    0.000
24 H_13031 -0.359 6.846 -9.491 H 2 NIL_2    0.000
25 H_13032 -1.835 6.759 -8.524 H 2 NIL_2    0.000
26 O -3.810 -4.549 1.057 O.2 3 NIL_3    0.000
27 C_2478 -2.655 -4.807 1.339 C.2 3 NIL_3    0.000
28 C_2474 -1.539 -5.011 0.296 C.3 3 NIL_3    0.000
29 C_2473 -0.835 -3.638 0.129 C.3 3 NIL_3    0.000
30 C_2475 -2.166 -5.158 -1.139 C.3 3 NIL_3    0.000
31 N -0.581 -6.076 0.775 N.am 3 NIL_3    0.000
32 C_2472 -1.843 -2.858 -0.727 C.3 3 NIL_3    0.000
33 N -2.297 -3.808 -1.721 N.am 3 NIL_3    0.000
34 C_2477 -1.445 -1.502 -1.245 C.2 3 NIL_3    0.000
35 O -0.651 -0.794 -0.655 O.2 3 NIL_3    0.000
36 H_2472 -2.711 -2.629 -0.107 H 3 NIL_3    0.000
37 H_24751 -1.536 -5.729 -1.820 H 3 NIL_3    0.000
38 H_24752 -3.147 -5.642 -1.092 H 3 NIL_3    0.000
39 H_24731 0.114 -3.743 -0.404 H 3 NIL_3    0.000
40 H_24732 -0.655 -3.132 1.076 H 3 NIL_3    0.000
41 O 2.976 -1.147 -2.874 O.2 4 NIL_4    0.000
42 C_2958 4.165 -0.935 -2.722 C.2 4 NIL_4    0.000
43 C_2946 5.226 -1.371 -3.754 C.3 4 NIL_4    0.000
44 C_2945 4.824 -2.746 -4.381 C.3 4 NIL_4    0.000
45 C_2947 5.076 -0.405 -4.960 C.3 4 NIL_4    0.000
46 N 6.643 -1.330 -3.225 N.am 4 NIL_4    0.000
47 C_2944 5.112 -2.608 -5.887 C.3 4 NIL_4    0.000
48 N 4.928 -1.201 -6.186 N.am 4 NIL_4    0.000
49 C_2949 4.345 -3.535 -6.809 C.2 4 NIL_4    0.000
50 O 4.010 -4.642 -6.430 O.2 4 NIL_4    0.000
51 H_2944 6.160 -2.834 -6.089 H 4 NIL_4    0.000
52 H_29471 4.182 0.216 -4.853 H 4 NIL_4    0.000
53 H_29472 5.942 0.257 -5.046 H 4 NIL_4    0.000
54 H_29451 3.756 -2.944 -4.267 H 4 NIL_4    0.000
55 H_29452 5.349 -3.590 -3.930 H 4 NIL_4    0.000
56 C_2849 5.064 0.386 5.570 C.3 5 NIL_5    0.000
57 C_2848 5.191 -1.065 4.997 C.3 5 NIL_5    0.000
58 C_2850 5.024 1.285 4.306 C.3 5 NIL_5    0.000
59 N 6.200 0.798 6.462 N.am 5 NIL_5    0.000
60 C_2855 3.687 0.540 6.222 C.2 5 NIL_5    0.000
61 C_2847 5.444 -0.898 3.488 C.3 5 NIL_5    0.000
62 N 4.926 0.412 3.136 N.am 5 NIL_5    0.000
63 O 2.668 0.089 5.736 O.2 5 NIL_5    0.000
64 C_2852 4.911 -2.016 2.614 C.2 5 NIL_5    0.000
65 O 4.860 -3.159 3.028 O.2 5 NIL_5    0.000
66 H_2847 6.522 -0.869 3.307 H 5 NIL_5    0.000
67 H_28501 4.173 1.972 4.330 H 5 NIL_5    0.000
68 H_28502 5.944 1.871 4.220 H 5 NIL_5    0.000
69 H_28481 4.276 -1.641 5.152 H 5 NIL_5    0.000
70 H_28482 5.988 -1.648 5.453 H 5 NIL_5    0.000
71 C_3654 4.614 3.410 -16.312 C.2 6 NIL_6    0.000
72 C_3652 4.874 2.108 -16.178 C.2 6 NIL_6    0.000
73 C_3656 3.853 3.852 -17.310 C.2 6 NIL_6    0.000
74 C_3574 4.374 1.207 -17.034 C.2 6 NIL_6    0.000
75 C_3658 3.390 2.973 -18.203 C.2 6 NIL_6    0.000
76 C_3668 3.430 5.306 -17.365 C.3 6 NIL_6    0.000
77 C_2831 4.546 -0.212 -16.890 C.2 6 NIL_6    0.000
78 C_3660 3.645 1.671 -18.065 C.2 6 NIL_6    0.000
79 NH 2.194 5.646 -16.623 N.am 6 NIL_6    0.000
80 O 4.583 -0.839 -17.933 O.2 6 NIL_6    0.000
81 C_1297 1.290 4.785 -16.080 C.2 6 NIL_6    0.000
82 C_1292 0.084 5.437 -15.424 C.3 6 NIL_6    0.000
83 O 1.417 3.575 -16.063 O.2 6 NIL_6    0.000
84 N -1.164 4.642 -15.551 N.am 6 NIL_6    0.000
85 C_1293 0.383 5.602 -13.920 C.3 6 NIL_6    0.000
86 C_1295 -1.757 4.486 -14.215 C.3 6 NIL_6    0.000
87 C_1294 -0.933 5.279 -13.174 C.3 6 NIL_6    0.000
88 N -1.636 6.537 -12.735 N.am 6 NIL_6    0.000
89 C_1306 -0.632 4.271 -12.056 C.2 6 NIL_6    0.000
90 C_3544 -2.021 7.494 -13.819 C.3 6 NIL_6    0.000
91 O 0.029 3.266 -12.254 O.2 6 NIL_6    0.000
92 C_3546 -1.079 8.701 -14.071 C.3 6 NIL_6    0.000
93 C_3548 -0.845 9.596 -12.838 C.3 6 NIL_6    0.000
94 H_35481 -0.362 9.038 -12.035 H 6 NIL_6    0.000
95 H_35482 -1.790 10.008 -12.472 H 6 NIL_6    0.000
96 H_35483 -0.192 10.433 -13.101 H 6 NIL_6    0.000
97 H_35461 -1.526 9.315 -14.857 H 6 NIL_6    0.000
98 H_35462 -0.119 8.372 -14.463 H 6 NIL_6    0.000
99 H_35441 -3.015 7.890 -13.591 H 6 NIL_6    0.000
100 H_35442 -2.133 6.964 -14.765 H 6 NIL_6    0.000
101 H_12951 -1.778 3.419 -13.976 H 6 NIL_6    0.000
102 H_12952 -2.781 4.863 -14.208 H 6 NIL_6    0.000
103 H_12931 1.175 4.904 -13.635 H 6 NIL_6    0.000
104 H_12932 0.771 6.590 -13.674 H 6 NIL_6    0.000
105 H_1292 -0.075 6.415 -15.889 H 6 NIL_6    0.000
106 H_3660 3.202 0.990 -18.788 H 6 NIL_6    0.000
107 H_36681 4.233 5.929 -16.964 H 6 NIL_6    0.000
108 H_36682 3.287 5.605 -18.408 H 6 NIL_6    0.000
109 H_3658 2.756 3.310 -19.020 H 6 NIL_6    0.000
110 H_3652 5.508 1.828 -15.355 H 6 NIL_6    0.000
111 H_3654 5.006 4.110 -15.577 H 6 NIL_6    0.000
112 HH 1.994 6.632 -16.546 H 6 NIL_6    0.000
113 N -3.673 -1.639 -5.566 N.am 7 NIL_7    0.000
114 C_2462 -2.339 -1.086 -5.682 C.3 7 NIL_7    0.000
115 C_2465 -3.929 -1.713 -4.116 C.3 7 NIL_7    0.000
116 C_2463 -1.546 -1.864 -4.620 C.3 7 NIL_7    0.000
117 C_2467 -1.727 -1.075 -7.064 C.2 7 NIL_7    0.000
118 C_2464 -2.553 -2.025 -3.437 C.3 7 NIL_7    0.000
119 O -0.599 -0.648 -7.220 O.2 7 NIL_7    0.000
120 N -2.136 -1.084 -2.339 N.am 7 NIL_7    0.000
121 C_2476 -2.612 -3.506 -3.004 C.2 7 NIL_7    0.000
122 O -2.941 -4.388 -3.773 O.2 7 NIL_7    0.000
123 H_24631 -1.253 -2.835 -5.029 H 7 NIL_7    0.000
124 H_24632 -0.635 -1.335 -4.333 H 7 NIL_7    0.000
125 H_24651 -4.669 -2.484 -3.885 H 7 NIL_7    0.000
126 H_24652 -4.348 -0.758 -3.798 H 7 NIL_7    0.000
127 H_2462 -2.397 -0.031 -5.402 H 7 NIL_7    0.000
128 O -4.184 -5.523 -16.346 O.2 8 NIL_8    0.000
129 C_2349 -3.346 -5.111 -15.567 C.2 8 NIL_8    0.000
130 C_2378 -1.960 -5.128 -15.919 C.2 8 NIL_8    0.000
131 C_3627 -1.543 -5.780 -17.012 C.2 8 NIL_8    0.000
132 C_3635 -1.049 -4.461 -15.194 C.2 8 NIL_8    0.000
133 C_3629 -0.260 -5.746 -17.375 C.2 8 NIL_8    0.000
134 C_3633 0.229 -4.422 -15.566 C.2 8 NIL_8    0.000
135 C_3631 0.640 -5.057 -16.667 C.2 8 NIL_8    0.000
136 C_3643 2.078 -5.010 -17.155 C.3 8 NIL_8    0.000
137 NH 3.074 -4.270 -16.373 N.am 8 NIL_8    0.000
138 C_2832 3.157 -2.921 -16.327 C.2 8 NIL_8    0.000
139 C_2827 4.407 -2.394 -15.634 C.3 8 NIL_8    0.000
140 O 2.290 -2.206 -16.794 O.2 8 NIL_8    0.000
141 N 4.607 -0.925 -15.717 N.am 8 NIL_8    0.000
142 C_2828 4.409 -2.807 -14.144 C.3 8 NIL_8    0.000
143 C_2830 4.664 -0.406 -14.339 C.3 8 NIL_8    0.000
144 C_2829 4.888 -1.569 -13.343 C.3 8 NIL_8    0.000
145 N 6.342 -1.692 -12.938 N.am 8 NIL_8    0.000
146 C_2841 3.909 -1.342 -12.175 C.2 8 NIL_8    0.000
147 C_3522 7.304 -2.140 -13.991 C.3 8 NIL_8    0.000
148 O 2.703 -1.296 -12.340 O.2 8 NIL_8    0.000
149 C_3524 8.484 -1.188 -14.316 C.3 8 NIL_8    0.000
150 C_3526 8.058 0.147 -14.950 C.3 8 NIL_8    0.000
151 H_35261 7.409 -0.021 -15.812 H 8 NIL_8    0.000
152 H_35262 8.937 0.697 -15.291 H 8 NIL_8    0.000
153 H_35263 7.540 0.772 -14.223 H 8 NIL_8    0.000
154 H_35241 9.141 -1.702 -15.023 H 8 NIL_8    0.000
155 H_35242 9.081 -0.989 -13.424 H 8 NIL_8    0.000
156 H_35221 6.804 -2.331 -14.933 H 8 NIL_8    0.000
157 H_35222 7.726 -3.094 -13.662 H 8 NIL_8    0.000
158 H_28301 3.723 0.117 -14.146 H 8 NIL_8    0.000
159 H_28302 5.481 0.289 -14.200 H 8 NIL_8    0.000
160 H_28281 3.399 -3.103 -13.850 H 8 NIL_8    0.000
161 H_28282 5.044 -3.680 -13.970 H 8 NIL_8    0.000
162 H_2827 5.250 -2.875 -16.139 H 8 NIL_8    0.000
163 H_36431 2.445 -6.036 -17.246 H 8 NIL_8    0.000
164 H_36432 2.081 -4.580 -18.161 H 8 NIL_8    0.000
165 H_3633 0.923 -3.847 -14.958 H 8 NIL_8    0.000
166 H_3629 0.049 -6.277 -18.273 H 8 NIL_8    0.000
167 H_3635 -1.326 -3.902 -14.305 H 8 NIL_8    0.000
168 H_3627 -2.240 -6.341 -17.631 H 8 NIL_8    0.000
169 HH 3.777 -4.814 -15.896 H 8 NIL_8    0.000
170 C_2373 -2.966 -5.852 6.056 C.2 9 NIL_9    0.000
171 C_2367 -2.245 -4.909 5.080 C.3 9 NIL_9    0.000
172 O -3.359 -6.955 5.725 O.2 9 NIL_9    0.000
173 C_2366 -1.000 -5.662 4.529 C.3 9 NIL_9    0.000
174 C_2368 -3.138 -4.767 3.812 C.3 9 NIL_9    0.000
175 N -1.899 -3.562 5.666 N.am 9 NIL_9    0.000
176 C_2365 -0.917 -5.251 3.048 C.3 9 NIL_9    0.000
177 N -2.279 -4.937 2.631 N.am 9 NIL_9    0.000
178 C_2370 -0.245 -6.217 2.093 C.2 9 NIL_9    0.000
179 O 0.517 -7.077 2.491 O.2 9 NIL_9    0.000
180 H_2365 -0.333 -4.336 2.969 H 9 NIL_9    0.000
181 H_23681 -3.909 -5.540 3.777 H 9 NIL_9    0.000
182 H_23682 -3.628 -3.790 3.783 H 9 NIL_9    0.000
183 H_23661 -1.139 -6.744 4.581 H 9 NIL_9    0.000
184 H_23662 -0.090 -5.428 5.084 H 9 NIL_9    0.000
185 C_137 1.219 -4.888 18.121 C.2 10 NIL_10    0.000
186 C_110 0.194 -5.352 17.075 C.3 10 NIL_10    0.000
187 O 1.085 -5.091 19.314 O.2 10 NIL_10    0.000
188 C_109 -1.081 -4.490 17.246 C.3 10 NIL_10    0.000
189 C_111 -0.266 -6.788 17.477 C.3 10 NIL_10    0.000
190 N 0.683 -5.262 15.652 N.am 10 NIL_10    0.000
191 C_108 -2.148 -5.407 17.873 C.3 10 NIL_10    0.000
192 N -1.743 -6.765 17.466 N.3 10 NIL_10    0.000
193 C_113 -3.530 -4.961 17.439 C.2 10 NIL_10    0.000
194 O -4.203 -5.567 16.626 O.2 10 NIL_10    0.000
195 H_108 -2.089 -5.322 18.962 H 10 NIL_10    0.000
196 H_1111 0.124 -7.549 16.797 H 10 NIL_10    0.000
197 H_1112 0.066 -7.046 18.485 H 10 NIL_10    0.000
198 H_1091 -1.431 -4.132 16.275 H 10 NIL_10    0.000
199 H_1092 -0.909 -3.607 17.870 H 10 NIL_10    0.000
200 O -1.918 -2.065 7.345 O.2 11 NIL_11    0.000
201 C_2372 -2.157 -3.193 6.952 C.2 11 NIL_11    0.000
202 C_2376 -2.767 -4.192 7.921 C.3 11 NIL_11    0.000
203 NH -3.195 -5.452 7.321 N.am 11 NIL_11    0.000
204 C_2388 -1.790 -4.425 9.100 C.3 11 NIL_11    0.000
205 C_2396 -2.460 -5.088 10.325 C.3 11 NIL_11    0.000
206 N -1.573 -4.952 11.485 N.3 11 NIL_11    0.000
207 N -1.691 -3.863 12.291 N.2 11 NIL_11    0.000
208 N -1.118 -4.124 13.417 N.2 11 NIL_11    0.000
209 H_23961 -3.416 -4.601 10.539 H 11 NIL_11    0.000
210 H_23962 -2.649 -6.147 10.121 H 11 NIL_11    0.000
211 H_23881 -1.382 -3.463 9.420 H 11 NIL_11    0.000
212 H_23882 -0.946 -5.034 8.765 H 11 NIL_11    0.000
213 H_2376 -3.667 -3.704 8.305 H 11 NIL_11    0.000
214 HH -3.693 -6.087 7.929 H 11 NIL_11    0.000
215 C_1312 -1.875 5.474 3.662 C.3 12 NIL_12    0.000
216 N -2.122 4.084 3.313 N.am 12 NIL_12    0.000
217 C_1313 -1.684 5.507 5.187 C.3 12 NIL_12    0.000
218 C_1317 -0.752 6.101 2.864 C.2 12 NIL_12    0.000
219 C_1315 -2.540 3.334 4.504 C.3 12 NIL_12    0.000
220 C_1314 -2.499 4.290 5.725 C.3 12 NIL_12    0.000
221 O -0.121 7.038 3.317 O.2 12 NIL_12    0.000
222 N -3.899 4.638 6.177 N.am 12 NIL_12    0.000
223 C_1320 -1.667 3.578 6.802 C.2 12 NIL_12    0.000
224 O -0.463 3.421 6.725 O.2 12 NIL_12    0.000
225 H_13151 -1.841 2.503 4.639 H 12 NIL_12    0.000
226 H_13152 -3.541 2.921 4.360 H 12 NIL_12    0.000
227 H_13131 -0.617 5.397 5.387 H 12 NIL_12    0.000
228 H_13132 -1.984 6.458 5.632 H 12 NIL_12    0.000
229 H_1312 -2.770 6.037 3.387 H 12 NIL_12    0.000
230 C_3520 3.452 -5.728 -10.863 C.3 13 NIL_13    0.000
231 C_3007 4.262 -4.755 -9.988 C.3 13 NIL_13    0.000
232 C_3006 3.345 -3.963 -9.030 C.3 13 NIL_13    0.000
233 H_30061 2.609 -3.421 -9.619 H 13 NIL_13    0.000
234 H_30062 2.759 -4.689 -8.460 H 13 NIL_13    0.000
235 H_30071 5.000 -5.317 -9.410 H 13 NIL_13    0.000
236 H_30072 4.797 -4.074 -10.652 H 13 NIL_13    0.000
237 H_35201 2.748 -5.183 -11.497 H 13 NIL_13    0.000
238 H_35202 2.892 -6.435 -10.246 H 13 NIL_13    0.000
239 H_35203 4.124 -6.295 -11.511 H 13 NIL_13    0.000
240 C_2878 5.173 3.175 10.249 C.3 14 NIL_14    0.000
241 N 4.716 3.257 11.642 N.3 14 NIL_14    0.000
242 C_2870 4.471 2.015 9.505 C.3 14 NIL_14    0.000
243 N 5.532 3.887 12.531 N.2 14 NIL_14    0.000
244 C_2858 4.658 2.034 7.969 C.3 14 NIL_14    0.000
245 N 5.303 3.430 13.714 N.2 14 NIL_14    0.000
246 C_2854 6.062 1.651 7.517 C.2 14 NIL_14    0.000
247 NH 3.596 1.229 7.370 N.am 14 NIL_14    0.000
248 O 7.039 2.097 8.088 O.2 14 NIL_14    0.000
249 H_2858 4.502 3.056 7.612 H 14 NIL_14    0.000
250 H_28701 4.808 1.054 9.904 H 14 NIL_14    0.000
251 H_28702 3.400 2.092 9.707 H 14 NIL_14    0.000
252 H_28781 6.256 3.031 10.236 H 14 NIL_14    0.000
253 H_28782 4.939 4.120 9.749 H 14 NIL_14    0.000
254 HH 2.695 1.281 7.821 H 14 NIL_14    0.000
255 O 6.253 -1.144 16.745 O.2 15 NIL_15    0.000
256 C_262 5.339 -0.889 17.507 C.2 15 NIL_15    0.000
257 C_257 5.086 0.508 18.058 C.3 15 NIL_15    0.000
258 N 5.946 1.552 17.461 N.3 15 NIL_15    0.000
259 C_258 3.624 0.970 17.838 C.3 15 NIL_15    0.000
260 C_260 5.171 2.798 17.347 C.3 15 NIL_15    0.000
261 C_259 3.672 2.401 17.245 C.3 15 NIL_15    0.000
262 N 3.170 2.382 15.824 N.am 15 NIL_15    0.000
263 C_271 2.893 3.346 18.175 C.2 15 NIL_15    0.000
264 O 3.266 3.619 19.301 O.2 15 NIL_15    0.000
265 H_2601 5.493 3.387 16.485 H 15 NIL_15    0.000
266 H_2602 5.358 3.388 18.248 H 15 NIL_15    0.000
267 H_2581 3.083 0.297 17.168 H 15 NIL_15    0.000
268 H_2582 3.094 0.948 18.793 H 15 NIL_15    0.000
269 H_257 5.264 0.465 19.137 H 15 NIL_15    0.000
270 C_2528 -0.080 -7.038 -0.232 C.3 16 NIL_16    0.000
271 C_2529 -1.083 -8.182 -0.523 C.3 16 NIL_16    0.000
272 C_3502 -0.873 -9.395 0.406 C.3 16 NIL_16    0.000
273 H_35021 0.135 -9.800 0.292 H 16 NIL_16    0.000
274 H_35022 -1.586 -10.183 0.152 H 16 NIL_16    0.000
275 H_35023 -1.023 -9.126 1.453 H 16 NIL_16    0.000
276 H_25291 -0.966 -8.508 -1.560 H 16 NIL_16    0.000
277 H_25292 -2.110 -7.826 -0.419 H 16 NIL_16    0.000
278 H_25281 0.862 -7.473 0.110 H 16 NIL_16    0.000
279 H_25282 0.166 -6.504 -1.150 H 16 NIL_16    0.000
280 C_726 -3.325 2.584 18.303 C.3 17 NIL_17    0.000
281 C_725 -3.652 4.099 18.239 C.3 17 NIL_17    0.000
282 C_727 -4.434 1.827 17.528 C.3 17 NIL_17    0.000
283 N -4.980 4.203 17.601 N.3 17 NIL_17    0.000
284 C_729 -2.588 4.910 17.510 C.2 17 NIL_17    0.000
285 C_728 -5.591 2.866 17.475 C.3 17 NIL_17    0.000
286 N -3.921 1.422 16.166 N.am 17 NIL_17    0.000
287 C_738 -4.918 0.649 18.396 C.2 17 NIL_17    0.000
288 O -2.847 5.645 16.575 O.2 17 NIL_17    0.000
289 O -5.517 0.809 19.444 O.2 17 NIL_17    0.000
290 H_7281 -6.166 2.779 16.549 H 17 NIL_17    0.000
291 H_7282 -6.275 2.736 18.317 H 17 NIL_17    0.000
292 H_725 -3.698 4.484 19.263 H 17 NIL_17    0.000
293 H_7261 -2.336 2.343 17.907 H 17 NIL_17    0.000
294 H_7262 -3.320 2.289 19.356 H 17 NIL_17    0.000
295 N 4.420 -1.200 -10.934 N.am 18 NIL_18    0.000
296 C_2935 5.822 -1.141 -10.587 C.3 18 NIL_18    0.000
297 C_2938 3.668 -1.088 -9.683 C.3 18 NIL_18    0.000
298 C_2936 5.942 -1.877 -9.244 C.3 18 NIL_18    0.000
299 C_2939 6.783 -1.615 -11.650 C.2 18 NIL_18    0.000
300 C_2937 4.552 -1.730 -8.561 C.3 18 NIL_18    0.000
301 O 7.923 -1.909 -11.339 O.2 18 NIL_18    0.000
302 N 4.065 -3.074 -8.065 N.am 18 NIL_18    0.000
303 C_2948 4.770 -0.710 -7.430 C.2 18 NIL_18    0.000
304 O 4.849 0.488 -7.616 O.2 18 NIL_18    0.000
305 H_29361 6.198 -2.925 -9.404 H 18 NIL_18    0.000
306 H_29362 6.750 -1.449 -8.645 H 18 NIL_18    0.000
307 H_29381 2.673 -1.521 -9.764 H 18 NIL_18    0.000
308 H_29382 3.516 -0.024 -9.507 H 18 NIL_18    0.000
309 H_2935 6.058 -0.085 -10.428 H 18 NIL_18    0.000
310 N -3.847 1.752 11.660 N.3 19 NIL_19    0.000
311 C_1343 -3.511 1.742 10.238 C.3 19 NIL_19    0.000
312 N -5.130 1.626 12.087 N.2 19 NIL_19    0.000
313 C_1335 -4.146 2.949 9.516 C.3 19 NIL_19    0.000
314 N -5.149 1.883 13.350 N.2 19 NIL_19    0.000
315 C_1323 -3.748 2.987 8.022 C.3 19 NIL_19    0.000
316 C_1319 -4.513 4.041 7.241 C.2 19 NIL_19    0.000
317 NH -2.302 3.090 7.879 N.am 19 NIL_19    0.000
318 O -5.647 4.340 7.571 O.2 19 NIL_19    0.000
319 H_1323 -4.037 2.035 7.566 H 19 NIL_19    0.000
320 H_13351 -5.232 2.872 9.603 H 19 NIL_19    0.000
321 H_13352 -3.839 3.880 10.001 H 19 NIL_19    0.000
322 H_13431 -3.874 0.814 9.788 H 19 NIL_19    0.000
323 H_13432 -2.423 1.775 10.138 H 19 NIL_19    0.000
324 HH -1.750 2.650 8.600 H 19 NIL_19    0.000
325 C_2299 -3.611 2.532 15.220 C.3 20 NIL_20    0.000
326 C_309 -3.990 2.238 13.787 C.2 20 NIL_20    0.000
327 C_310 -3.194 2.186 12.740 C.2 20 NIL_20    0.000
328 H_310 -2.127 2.384 12.711 H 20 NIL_20    0.000
329 H_22991 -2.536 2.723 15.274 H 20 NIL_20    0.000
330 H_22992 -4.115 3.455 15.486 H 20 NIL_20    0.000
331 C_1471 1.843 5.193 -9.117 C.3 21 NIL_21    0.000
332 C_1472 2.977 4.168 -8.898 C.3 21 NIL_21    0.000
333 C_3542 2.502 2.708 -8.963 C.3 21 NIL_21    0.000
334 H_35421 1.687 2.520 -8.256 H 21 NIL_21    0.000
335 H_35422 3.324 2.052 -8.700 H 21 NIL_21    0.000
336 H_35423 2.178 2.448 -9.973 H 21 NIL_21    0.000
337 H_14721 3.458 4.341 -7.933 H 21 NIL_21    0.000
338 H_14722 3.742 4.324 -9.661 H 21 NIL_21    0.000
339 H_14711 2.289 6.192 -9.140 H 21 NIL_21    0.000
340 H_14712 1.405 5.037 -10.102 H 21 NIL_21    0.000
341 C_2356 -4.850 -2.251 -8.902 C.3 22 NIL_22    0.000
342 C_2355 -5.136 -3.691 -9.360 C.3 22 NIL_22    0.000
343 C_2357 -3.643 -2.438 -7.919 C.3 22 NIL_22    0.000
344 N -3.812 -4.258 -9.514 N.am 22 NIL_22    0.000
345 C_2360 -6.074 -3.855 -10.533 C.2 22 NIL_22    0.000
346 C_2358 -3.131 -3.873 -8.269 C.3 22 NIL_22    0.000
347 N -2.499 -1.487 -8.105 N.am 22 NIL_22    0.000
348 C_2369 -4.233 -2.447 -6.497 C.2 22 NIL_22    0.000
349 O -7.244 -3.567 -10.388 O.2 22 NIL_22    0.000
350 O -5.187 -3.147 -6.204 O.2 22 NIL_22    0.000
351 H_23581 -2.044 -3.902 -8.382 H 22 NIL_22    0.000
352 H_23582 -3.410 -4.588 -7.487 H 22 NIL_22    0.000
353 H_2355 -5.623 -4.234 -8.542 H 22 NIL_22    0.000
354 H_23561 -4.600 -1.634 -9.764 H 22 NIL_22    0.000
355 H_23562 -5.721 -1.803 -8.421 H 22 NIL_22    0.000
356 O -2.312 2.434 1.830 O.2 23 NIL_23    0.000
357 C_1428 -1.990 3.583 2.067 C.2 23 NIL_23    0.000
358 C_1424 -1.411 4.541 1.012 C.3 23 NIL_23    0.000
359 C_1423 -2.600 5.288 0.342 C.3 23 NIL_23    0.000
360 C_1425 -0.797 3.734 -0.173 C.3 23 NIL_23    0.000
361 N -0.493 5.567 1.635 N.am 23 NIL_23    0.000
362 C_1422 -2.464 5.092 -1.180 C.3 23 NIL_23    0.000
363 N -1.217 4.392 -1.412 N.am 23 NIL_23    0.000
364 C_1427 -2.624 6.349 -2.006 C.2 23 NIL_23    0.000
365 O -3.409 7.213 -1.661 O.2 23 NIL_23    0.000
366 H_1422 -3.265 4.427 -1.514 H 23 NIL_23    0.000
367 H_14251 0.289 3.680 -0.112 H 23 NIL_23    0.000
368 H_14252 -1.180 2.714 -0.215 H 23 NIL_23    0.000
369 H_14231 -2.597 6.348 0.612 H 23 NIL_23    0.000
370 H_14232 -3.562 4.881 0.667 H 23 NIL_23    0.000
371 N -5.570 -4.426 -11.665 N.am 24 NIL_24    0.000
372 C_2347 -4.095 -4.316 -11.977 C.3 24 NIL_24    0.000
373 C_3508 -6.413 -5.302 -12.545 C.3 24 NIL_24    0.000
374 C_2346 -3.888 -2.954 -12.693 C.3 24 NIL_24    0.000
375 C_2348 -3.526 -5.262 -13.080 C.3 24 NIL_24    0.000
376 C_2359 -3.207 -4.402 -10.720 C.2 24 NIL_24    0.000
377 C_3510 -7.842 -4.832 -12.927 C.3 24 NIL_24    0.000
378 C_2345 -4.276 -3.254 -14.153 C.3 24 NIL_24    0.000
379 N -3.736 -4.601 -14.379 N.am 24 NIL_24    0.000
380 O -2.001 -4.558 -10.784 O.2 24 NIL_24    0.000
381 C_3512 -7.880 -3.465 -13.639 C.3 24 NIL_24    0.000
382 C_2350 -3.898 -2.172 -15.163 C.2 24 NIL_24    0.000
383 O -2.773 -2.016 -15.597 O.2 24 NIL_24    0.000
384 NH -4.935 -1.396 -15.564 N.am 24 NIL_24    0.000
385 C_3705 -4.939 -0.539 -16.763 C.3 24 NIL_24    0.000
386 C_3693 -4.055 0.692 -16.747 C.2 24 NIL_24    0.000
387 C_3691 -4.371 1.756 -16.006 C.2 24 NIL_24    0.000
388 C_3695 -2.953 0.745 -17.499 C.2 24 NIL_24    0.000
389 C_3689 -3.586 2.835 -15.990 C.2 24 NIL_24    0.000
390 C_3697 -2.171 1.823 -17.489 C.2 24 NIL_24    0.000
391 C_3585 -2.461 2.881 -16.719 C.2 24 NIL_24    0.000
392 C_1296 -1.544 3.980 -16.689 C.2 24 NIL_24    0.000
393 O -1.018 4.271 -17.748 O.2 24 NIL_24    0.000
394 H_3697 -1.271 1.814 -18.101 H 24 NIL_24    0.000
395 H_3689 -3.905 3.675 -15.387 H 24 NIL_24    0.000
396 H_3695 -2.680 -0.104 -18.121 H 24 NIL_24    0.000
397 H_3691 -5.278 1.748 -15.404 H 24 NIL_24    0.000
398 H_37051 -5.971 -0.219 -16.931 H 24 NIL_24    0.000
399 H_37052 -4.663 -1.164 -17.617 H 24 NIL_24    0.000
400 H_35121 -8.912 -3.133 -13.760 H 24 NIL_24    0.000
401 H_35122 -7.439 -3.542 -14.635 H 24 NIL_24    0.000
402 H_35123 -7.343 -2.702 -13.070 H 24 NIL_24    0.000
403 H_2345 -5.357 -3.343 -14.208 H 24 NIL_24    0.000
404 H_35101 -8.490 -4.816 -12.050 H 24 NIL_24    0.000
405 H_35102 -8.277 -5.577 -13.598 H 24 NIL_24    0.000
406 H_23481 -2.450 -5.403 -12.963 H 24 NIL_24    0.000
407 H_23482 -3.992 -6.250 -13.055 H 24 NIL_24    0.000
408 H_23461 -2.834 -2.666 -12.655 H 24 NIL_24    0.000
409 H_23462 -4.485 -2.146 -12.262 H 24 NIL_24    0.000
410 H_35081 -6.510 -6.263 -12.031 H 24 NIL_24    0.000
411 H_35082 -5.921 -5.509 -13.494 H 24 NIL_24    0.000
412 HH -5.831 -1.544 -15.126 H 24 NIL_24    0.000
413 C_737 -5.389 -1.817 18.400 C.3 25 NIL_25    0.000
414 C.fb -5.002 -2.954 17.430 C.3 25 NIL_25    0.000
415 N -4.697 -0.601 17.943 N.am 25 NIL_25    0.000
416 C_735 -4.506 -2.178 16.198 C.3 25 NIL_25    0.000
417 NH -3.914 -3.779 17.969 N.am 25 NIL_25    0.000
418 C_734 -3.832 -0.956 16.834 C.3 25 NIL_25    0.000
419 C_739 -3.518 0.151 15.861 C.2 25 NIL_25    0.000
420 O -2.902 -0.124 14.848 O.2 25 NIL_25    0.000
421 H_734 -2.871 -1.259 17.260 H 25 NIL_25    0.000
422 H_7351 -3.822 -2.756 15.572 H 25 NIL_25    0.000
423 H_7352 -5.359 -1.860 15.592 H 25 NIL_25    0.000
424 H.fb -5.865 -3.583 17.190 H 25 NIL_25    0.000
425 H_7371 -6.467 -1.642 18.348 H 25 NIL_25    0.000
426 H_7372 -5.107 -2.056 19.429 H 25 NIL_25    0.000
427 HH -3.307 -3.341 18.645 H 25 NIL_25    0.000
428 C_1417 1.092 5.759 -6.842 C.2 26 NIL_26    0.000
429 C_1412 -0.063 5.925 -5.879 C.3 26 NIL_26    0.000
430 O 2.212 6.130 -6.545 O.2 26 NIL_26    0.000
431 N -1.137 4.970 -6.091 N.am 26 NIL_26    0.000
432 C_1413 0.299 5.844 -4.388 C.3 26 NIL_26    0.000
433 C_1415 -1.746 4.597 -4.806 C.3 26 NIL_26    0.000
434 C_1414 -0.998 5.350 -3.674 C.3 26 NIL_26    0.000
435 N -1.869 6.466 -3.137 N.am 26 NIL_26    0.000
436 C_1426 -0.601 4.311 -2.607 C.2 26 NIL_26    0.000
437 O 0.243 3.453 -2.794 O.2 26 NIL_26    0.000
438 H_14151 -1.648 3.516 -4.683 H 26 NIL_26    0.000
439 H_14152 -2.810 4.846 -4.809 H 26 NIL_26    0.000
440 H_14131 1.113 5.124 -4.282 H 26 NIL_26    0.000
441 H_14132 0.666 6.794 -3.996 H 26 NIL_26    0.000
442 H_1412 -0.472 6.909 -6.110 H 26 NIL_26    0.000
443 C_766 -0.714 -5.345 13.475 C.2 27 NIL_27    0.000
444 C_767 -1.042 -5.862 12.310 C.2 27 NIL_27    0.000
445 C_2285 -0.072 -6.061 14.644 C.3 27 NIL_27    0.000
446 H_22851 -0.882 -6.616 15.110 H 27 NIL_27    0.000
447 H_22852 0.624 -6.803 14.245 H 27 NIL_27    0.000
448 H_767 -0.903 -6.888 11.986 H 27 NIL_27    0.000
449 C_3011 5.056 -3.497 -0.318 C.3 28 NIL_28    0.000
450 C_3010 3.962 -2.740 0.460 C.3 28 NIL_28    0.000
451 C_3516 4.450 -4.591 -1.212 C.3 28 NIL_28    0.000
452 H_35161 3.918 -5.330 -0.609 H 28 NIL_28    0.000
453 H_35162 5.240 -5.100 -1.767 H 28 NIL_28    0.000
454 H_35163 3.750 -4.158 -1.930 H 28 NIL_28    0.000
455 H_30101 3.232 -2.350 -0.244 H 28 NIL_28    0.000
456 H_30102 3.414 -3.462 1.072 H 28 NIL_28    0.000
457 H_30111 5.756 -3.954 0.385 H 28 NIL_28    0.000
458 H_30112 5.626 -2.810 -0.941 H 28 NIL_28    0.000
459 C_2531 0.188 -2.371 4.810 C.3 29 NIL_29    0.000
460 C_2530 -1.348 -2.536 4.729 C.3 29 NIL_29    0.000
461 C_3500 0.723 -1.564 3.611 C.3 29 NIL_29    0.000
462 H_35001 1.813 -1.519 3.635 H 29 NIL_29    0.000
463 H_35002 0.330 -0.545 3.620 H 29 NIL_29    0.000
464 H_35003 0.433 -2.036 2.673 H 29 NIL_29    0.000
465 H_25301 -1.805 -1.569 4.954 H 29 NIL_29    0.000
466 H_25302 -1.628 -2.750 3.700 H 29 NIL_29    0.000
467 H_25311 0.682 -3.343 4.818 H 29 NIL_29    0.000
468 H_25312 0.452 -1.867 5.742 H 29 NIL_29    0.000
469 C_2526 -2.318 0.373 -2.563 C.3 30 NIL_30    0.000
470 C_2527 -3.175 1.038 -1.457 C.3 30 NIL_30    0.000
471 C_3504 -4.543 0.366 -1.236 C.3 30 NIL_30    0.000
472 H_35041 -5.162 0.447 -2.132 H 30 NIL_30    0.000
473 H_35042 -5.065 0.858 -0.413 H 30 NIL_30    0.000
474 H_35043 -4.432 -0.688 -0.976 H 30 NIL_30    0.000
475 H_25271 -3.330 2.089 -1.704 H 30 NIL_30    0.000
476 H_25272 -2.630 1.010 -0.515 H 30 NIL_30    0.000
477 H_25261 -2.794 0.575 -3.518 H 30 NIL_30    0.000
478 H_25262 -1.335 0.853 -2.587 H 30 NIL_30    0.000
479 C_188 -2.029 -9.247 17.660 C.3 31 NIL_31    0.000
480 C_112 -2.394 -7.860 18.223 C.3 31 NIL_31    0.000
481 H_1121 -3.479 -7.738 18.166 H 31 NIL_31    0.000
482 H_1122 -2.098 -7.805 19.274 H 31 NIL_31    0.000
483 H_1881 -2.576 -10.024 18.196 H 31 NIL_31    0.000
484 H_1882 -0.961 -9.450 17.771 H 31 NIL_31    0.000
485 H_1883 -2.287 -9.311 16.600 H 31 NIL_31    0.000
486 C_1476 -2.015 7.702 -3.957 C.3 32 NIL_32    0.000
487 C_1477 -3.197 7.643 -4.954 C.3 32 NIL_32    0.000
488 C_3532 -3.475 9.022 -5.578 C.3 32 NIL_32    0.000
489 H_35321 -2.616 9.371 -6.154 H 32 NIL_32    0.000
490 H_35322 -3.698 9.757 -4.800 H 32 NIL_32    0.000
491 H_35323 -4.336 8.964 -6.248 H 32 NIL_32    0.000
492 H_14771 -4.099 7.303 -4.438 H 32 NIL_32    0.000
493 H_14772 -2.992 6.934 -5.758 H 32 NIL_32    0.000
494 H_14761 -1.098 7.953 -4.486 H 32 NIL_32    0.000
495 H_14762 -2.188 8.542 -3.277 H 32 NIL_32    0.000
496 C_267 1.061 3.445 16.505 C.3 33 NIL_33    0.000
497 N 1.772 3.909 17.684 N.am 33 NIL_33    0.000
498 C_268 0.241 4.647 16.023 C.3 33 NIL_33    0.000
499 C_272 1.933 2.812 15.447 C.2 33 NIL_33    0.000
500 C_270 1.100 5.100 18.220 C.3 33 NIL_33    0.000
501 C.fa -0.138 5.351 17.338 C.3 33 NIL_33    0.000
502 O 1.523 2.694 14.307 O.2 33 NIL_33    0.000
503 NH -1.325 4.742 17.953 N.am 33 NIL_33    0.000
504 H.fa -0.307 6.421 17.186 H 33 NIL_33    0.000
505 H_2701 1.786 5.950 18.145 H 33 NIL_33    0.000
506 H_2702 0.818 4.949 19.266 H 33 NIL_33    0.000
507 H_2681 -0.626 4.342 15.432 H 33 NIL_33    0.000
508 H_2682 0.865 5.309 15.416 H 33 NIL_33    0.000
509 H_267 0.377 2.660 16.840 H 33 NIL_33    0.000
510 HH -1.164 4.110 18.722 H 33 NIL_33    0.000
511 C_245 4.142 2.328 12.424 C.2 34 NIL_34    0.000
512 C_243 4.473 2.449 13.690 C.2 34 NIL_34    0.000
513 C_2292 3.989 1.613 14.852 C.3 34 NIL_34    0.000
514 H_22921 3.366 0.801 14.466 H 34 NIL_34    0.000
515 H_22922 4.846 1.137 15.321 H 34 NIL_34    0.000
516 H_245 3.461 1.595 12.007 H 34 NIL_34    0.000
517 C_3518 9.650 -1.901 -5.616 C.3 35 NIL_35    0.000
518 C_3009 8.398 -1.198 -5.060 C.3 35 NIL_35    0.000
519 C_3008 7.703 -2.058 -3.980 C.3 35 NIL_35    0.000
520 H_30081 7.330 -2.976 -4.427 H 35 NIL_35    0.000
521 H_30082 8.465 -2.389 -3.268 H 35 NIL_35    0.000
522 H_30091 8.690 -0.234 -4.635 H 35 NIL_35    0.000
523 H_30092 7.712 -0.999 -5.884 H 35 NIL_35    0.000
524 H_35181 10.100 -1.295 -6.404 H 35 NIL_35    0.000
525 H_35182 9.393 -2.876 -6.035 H 35 NIL_35    0.000
526 H_35183 10.394 -2.044 -4.829 H 35 NIL_35    0.000
527 O 4.219 1.929 1.663 O.2 36 NIL_36    0.000
528 C_2960 4.576 0.788 1.886 C.2 36 NIL_36    0.000
529 C_2956 4.688 -0.288 0.797 C.3 36 NIL_36    0.000
530 C_2955 6.121 -0.165 0.204 C.3 36 NIL_36    0.000
531 C_2957 3.795 0.064 -0.434 C.3 36 NIL_36    0.000
532 N 4.501 -1.680 1.356 N.am 36 NIL_36    0.000
533 C_2954 5.958 0.076 -1.308 C.3 36 NIL_36    0.000
534 N 4.589 -0.284 -1.616 N.am 36 NIL_36    0.000
535 C_2959 7.023 -0.613 -2.129 C.2 36 NIL_36    0.000
536 O 8.188 -0.520 -1.790 O.2 36 NIL_36    0.000
537 H_2954 6.063 1.146 -1.511 H 36 NIL_36    0.000
538 H_29571 2.821 -0.427 -0.412 H 36 NIL_36    0.000
539 H_29572 3.611 1.140 -0.496 H 36 NIL_36    0.000
540 H_29551 6.698 -1.072 0.398 H 36 NIL_36    0.000
541 H_29552 6.678 0.666 0.644 H 36 NIL_36    0.000
542 C_2521 -1.981 -1.356 -9.492 C.3 37 NIL_37    0.000
543 C_2522 -2.078 0.077 -10.051 C.3 37 NIL_37    0.000
544 C_3506 -1.659 0.113 -11.532 C.3 37 NIL_37    0.000
545 H_35061 -2.361 -0.457 -12.143 H 37 NIL_37    0.000
546 H_35062 -0.659 -0.309 -11.664 H 37 NIL_37    0.000
547 H_35063 -1.654 1.139 -11.903 H 37 NIL_37    0.000
548 H_25221 -1.427 0.738 -9.474 H 37 NIL_37    0.000
549 H_25222 -3.100 0.449 -9.958 H 37 NIL_37    0.000
550 H_25211 -2.527 -2.009 -10.167 H 37 NIL_37    0.000
551 H_25212 -0.935 -1.676 -9.511 H 37 NIL_37    0.000
552 C.fc 4.512 -3.245 17.518 C.3 38 NIL_38    0.000
553 C_134 3.949 -3.488 16.105 C.3 38 NIL_38    0.000
554 C_136 3.566 -4.065 18.411 C.3 38 NIL_38    0.000
555 NH 4.463 -1.833 17.912 N.am 38 NIL_38    0.000
556 C_133 2.441 -3.676 16.334 C.3 38 NIL_38    0.000
557 N 2.314 -4.249 17.666 N.am 38 NIL_38    0.000
558 C_138 1.718 -4.464 15.259 C.2 38 NIL_38    0.000
559 O 2.069 -4.392 14.097 O.2 38 NIL_38    0.000
560 H_133 1.963 -2.692 16.366 H 38 NIL_38    0.000
561 H_1361 4.003 -5.049 18.602 H 38 NIL_38    0.000
562 H_1362 3.378 -3.559 19.363 H 38 NIL_38    0.000
563 H_1341 4.161 -2.665 15.417 H 38 NIL_38    0.000
564 H_1342 4.382 -4.406 15.697 H 38 NIL_38    0.000
565 H.fc 5.541 -3.607 17.602 H 38 NIL_38    0.000
566 HH 3.711 -1.559 18.526 H 38 NIL_38    0.000
567 C_1480 -4.663 5.643 5.374 C.3 39 NIL_39    0.000
568 C_1481 -5.440 5.088 4.154 C.3 39 NIL_39    0.000
569 C_3528 -6.501 4.035 4.528 C.3 39 NIL_39    0.000
570 H_35281 -7.057 3.732 3.639 H 39 NIL_39    0.000
571 H_35282 -7.210 4.443 5.250 H 39 NIL_39    0.000
572 H_35283 -6.039 3.143 4.956 H 39 NIL_39    0.000
573 H_14811 -4.759 4.664 3.418 H 39 NIL_39    0.000
574 H_14812 -5.944 5.924 3.664 H 39 NIL_39    0.000
575 H_14801 -4.015 6.449 5.036 H 39 NIL_39    0.000
576 H_14802 -5.390 6.137 6.025 H 39 NIL_39    0.000
577 C_3013 8.234 -0.648 6.889 C.3 40 NIL_40    0.000
578 C_3012 7.565 0.426 5.997 C.3 40 NIL_40    0.000
579 C_3514 9.591 -1.088 6.312 C.3 40 NIL_40    0.000
580 H_35141 10.035 -1.862 6.943 H 40 NIL_40    0.000
581 H_35142 10.282 -0.244 6.267 H 40 NIL_40    0.000
582 H_35143 9.470 -1.494 5.305 H 40 NIL_40    0.000
583 H_30121 8.194 1.322 5.996 H 40 NIL_40    0.000
584 H_30122 7.535 0.068 4.967 H 40 NIL_40    0.000
585 H_30131 7.586 -1.521 6.987 H 40 NIL_40    0.000
586 H_30132 8.389 -0.250 7.895 H 40 NIL_40    0.000
587 C_769 -5.848 5.294 18.100 C.3 41 NIL_41    0.000
588 C_770 -7.068 5.519 17.187 C.3 41 NIL_41    0.000
589 H_7701 -7.639 6.385 17.529 H 41 NIL_41    0.000
590 H_7702 -7.731 4.652 17.195 H 41 NIL_41    0.000
591 H_7703 -6.746 5.704 16.160 H 41 NIL_41    0.000
592 H_7691 -5.268 6.221 18.137 H 41 NIL_41    0.000
593 H_7692 -6.186 5.060 19.114 H 41 NIL_41    0.000
594 C_660 7.277 1.690 18.101 C.3 42 NIL_42    0.000
595 C_662 8.174 2.715 17.380 C.3 42 NIL_42    0.000
596 H_6621 8.282 2.458 16.323 H 42 NIL_42    0.000
597 H_6622 9.167 2.726 17.835 H 42 NIL_42    0.000
598 H_6623 7.760 3.723 17.454 H 42 NIL_42    0.000
599 H_6601 7.779 0.719 18.095 H 42 NIL_42    0.000
600 H_6602 7.147 2.000 19.142 H 42 NIL_42    0.000
@<TRIPOS>BOND
1 1 2 1 
2 1 3 1 
3 1 9 1 
4 1 10 1 
5 2 7 1 
6 2 8 1 
7 4 3 1 
8 5 3 1 
9 6 3 1 
10 11 12 1 
11 11 24 1 
12 11 25 1 
13 12 23 1 
14 13 11 1 
15 13 18 1 
16 14 12 1 
17 14 16 1 
18 14 89 1 
19 15 88 1 
20 15 12 1 
21 15 19 2 
22 16 13 1 
23 16 21 1 
24 16 22 1 
25 17 13 1 
26 20 18 2 
27 27 28 1 
28 27 26 2 
29 28 29 1 
30 28 31 1 
31 29 32 1 
32 29 39 1 
33 29 40 1 
34 30 28 1 
35 30 33 1 
36 30 37 1 
37 30 38 1 
38 32 33 1 
39 32 34 1 
40 32 36 1 
41 33 121 1 
42 34 35 2 
43 41 42 2 
44 43 44 1 
45 43 42 1 
46 44 47 1 
47 44 54 1 
48 44 55 1 
49 45 43 1 
50 45 48 1 
51 45 52 1 
52 45 53 1 
53 46 43 1 
54 46 519 1 
55 47 48 1 
56 47 51 1 
57 48 303 1 
58 49 302 1 
59 49 47 1 
60 49 50 2 
61 56 57 1 
62 56 60 1 
63 57 61 1 
64 57 69 1 
65 57 70 1 
66 58 56 1 
67 58 67 1 
68 58 68 1 
69 59 56 1 
70 59 246 1 
71 59 578 1 
72 61 66 1 
73 62 61 1 
74 62 58 1 
75 62 528 1 
76 63 60 2 
77 64 61 1 
78 64 65 2 
79 64 532 1 
80 71 72 1 
81 73 71 2 
82 74 72 2 
83 74 78 1 
84 75 73 1 
85 76 73 1 
86 77 141 1 
87 77 80 2 
88 77 74 1 
89 78 75 2 
90 79 76 1 
91 81 82 1 
92 81 79 1 
93 82 84 1 
94 82 105 1 
95 83 81 2 
96 85 82 1 
97 85 103 1 
98 85 104 1 
99 86 87 1 
100 86 84 1 
101 86 101 1 
102 86 102 1 
103 87 85 1 
104 88 87 1 
105 88 90 1 
106 89 87 1 
107 91 89 2 
108 92 90 1 
109 93 92 1 
110 94 93 1 
111 95 93 1 
112 96 93 1 
113 97 92 1 
114 98 92 1 
115 99 90 1 
116 100 90 1 
117 106 78 1 
118 107 76 1 
119 108 76 1 
120 109 75 1 
121 110 72 1 
122 111 71 1 
123 112 79 1 
124 114 113 1 
125 114 127 1 
126 115 118 1 
127 115 113 1 
128 115 125 1 
129 115 126 1 
130 116 114 1 
131 116 123 1 
132 116 124 1 
133 117 114 1 
134 117 119 2 
135 118 116 1 
136 118 121 1 
137 120 118 1 
138 120 34 1 
139 120 469 1 
140 122 121 2 
141 129 130 1 
142 129 128 2 
143 130 131 2 
144 130 132 1 
145 133 131 1 
146 134 135 1 
147 134 132 2 
148 135 133 2 
149 135 136 1 
150 137 136 1 
151 138 139 1 
152 138 140 2 
153 138 137 1 
154 139 141 1 
155 139 162 1 
156 142 139 1 
157 142 160 1 
158 142 161 1 
159 143 144 1 
160 143 141 1 
161 143 158 1 
162 143 159 1 
163 144 142 1 
164 144 145 1 
165 144 146 1 
166 145 299 1 
167 145 147 1 
168 146 295 1 
169 148 146 2 
170 149 147 1 
171 150 149 1 
172 151 150 1 
173 152 150 1 
174 153 150 1 
175 154 149 1 
176 155 149 1 
177 156 147 1 
178 157 147 1 
179 163 136 1 
180 164 136 1 
181 165 134 1 
182 166 133 1 
183 167 132 1 
184 168 131 1 
185 169 137 1 
186 171 173 1 
187 171 170 1 
188 172 170 2 
189 173 176 1 
190 173 183 1 
191 173 184 1 
192 174 171 1 
193 174 177 1 
194 174 181 1 
195 174 182 1 
196 175 171 1 
197 175 201 1 
198 175 460 1 
199 176 177 1 
200 176 180 1 
201 177 27 1 
202 178 176 1 
203 178 179 2 
204 178 31 1 
205 185 186 1 
206 186 188 1 
207 187 185 2 
208 188 191 1 
209 188 198 1 
210 188 199 1 
211 189 186 1 
212 189 192 1 
213 189 196 1 
214 189 197 1 
215 190 186 1 
216 191 192 1 
217 191 195 1 
218 193 191 1 
219 194 193 2 
220 201 200 2 
221 202 201 1 
222 202 213 1 
223 203 202 1 
224 203 170 1 
225 203 214 1 
226 204 202 1 
227 204 205 1 
228 204 211 1 
229 204 212 1 
230 205 209 1 
231 205 210 1 
232 206 205 1 
233 206 207 1 
234 206 444 1 
235 208 207 2 
236 208 443 1 
237 215 216 1 
238 215 229 1 
239 217 215 1 
240 217 227 1 
241 217 228 1 
242 218 215 1 
243 219 220 1 
244 219 216 1 
245 219 225 1 
246 219 226 1 
247 220 217 1 
248 221 218 2 
249 222 220 1 
250 223 220 1 
251 223 317 1 
252 224 223 2 
253 231 232 1 
254 231 230 1 
255 233 232 1 
256 234 232 1 
257 235 231 1 
258 236 231 1 
259 237 230 1 
260 238 230 1 
261 239 230 1 
262 240 252 1 
263 240 253 1 
264 241 240 1 
265 241 243 1 
266 242 244 1 
267 242 240 1 
268 242 250 1 
269 242 251 1 
270 244 246 1 
271 244 249 1 
272 245 243 2 
273 247 244 1 
274 247 60 1 
275 247 254 1 
276 248 246 2 
277 255 256 2 
278 257 258 1 
279 257 259 1 
280 257 256 1 
281 257 269 1 
282 258 260 1 
283 259 267 1 
284 259 268 1 
285 260 261 1 
286 260 265 1 
287 260 266 1 
288 261 259 1 
289 262 261 1 
290 263 261 1 
291 264 263 2 
292 270 31 1 
293 270 278 1 
294 270 279 1 
295 271 270 1 
296 271 272 1 
297 271 276 1 
298 271 277 1 
299 273 272 1 
300 274 272 1 
301 275 272 1 
302 280 281 1 
303 280 293 1 
304 280 294 1 
305 281 283 1 
306 281 292 1 
307 282 280 1 
308 282 287 1 
309 283 587 1 
310 284 281 1 
311 284 288 2 
312 284 503 1 
313 285 282 1 
314 285 283 1 
315 285 290 1 
316 285 291 1 
317 286 282 1 
318 286 419 1 
319 289 287 2 
320 296 295 1 
321 296 309 1 
322 297 300 1 
323 297 295 1 
324 297 307 1 
325 297 308 1 
326 298 296 1 
327 298 305 1 
328 298 306 1 
329 299 296 1 
330 299 301 2 
331 300 298 1 
332 300 303 1 
333 302 300 1 
334 302 232 1 
335 304 303 2 
336 310 311 1 
337 310 312 1 
338 310 327 1 
339 311 313 1 
340 311 322 1 
341 311 323 1 
342 313 320 1 
343 313 321 1 
344 314 312 2 
345 314 326 1 
346 315 316 1 
347 315 317 1 
348 315 313 1 
349 315 319 1 
350 316 222 1 
351 316 318 2 
352 317 324 1 
353 325 286 1 
354 325 326 1 
355 325 329 1 
356 325 330 1 
357 327 326 2 
358 327 328 1 
359 331 17 1 
360 331 339 1 
361 331 340 1 
362 332 331 1 
363 332 333 1 
364 332 337 1 
365 332 338 1 
366 334 333 1 
367 335 333 1 
368 336 333 1 
369 341 342 1 
370 341 354 1 
371 341 355 1 
372 342 344 1 
373 342 345 1 
374 342 353 1 
375 343 341 1 
376 344 376 1 
377 346 343 1 
378 346 344 1 
379 346 351 1 
380 346 352 1 
381 347 343 1 
382 347 542 1 
383 347 117 1 
384 348 343 1 
385 348 113 1 
386 349 345 2 
387 350 348 2 
388 356 357 2 
389 357 358 1 
390 357 216 1 
391 359 362 1 
392 359 358 1 
393 359 369 1 
394 359 370 1 
395 360 358 1 
396 360 367 1 
397 360 368 1 
398 361 358 1 
399 361 218 1 
400 361 2 1 
401 362 363 1 
402 362 364 1 
403 362 366 1 
404 363 360 1 
405 363 436 1 
406 364 435 1 
407 364 365 2 
408 371 372 1 
409 371 345 1 
410 371 373 1 
411 372 374 1 
412 372 376 1 
413 374 378 1 
414 374 408 1 
415 374 409 1 
416 375 372 1 
417 375 406 1 
418 375 407 1 
419 377 373 1 
420 378 403 1 
421 379 378 1 
422 379 375 1 
423 379 129 1 
424 380 376 2 
425 381 377 1 
426 382 378 1 
427 382 383 2 
428 382 384 1 
429 384 385 1 
430 385 386 1 
431 386 387 2 
432 387 389 1 
433 388 386 1 
434 390 388 2 
435 391 389 2 
436 391 390 1 
437 392 84 1 
438 392 391 1 
439 393 392 2 
440 394 390 1 
441 395 389 1 
442 396 388 1 
443 397 387 1 
444 398 385 1 
445 399 385 1 
446 400 381 1 
447 401 381 1 
448 402 381 1 
449 404 377 1 
450 405 377 1 
451 410 373 1 
452 411 373 1 
453 412 384 1 
454 413 425 1 
455 413 426 1 
456 414 416 1 
457 414 413 1 
458 414 417 1 
459 414 424 1 
460 415 413 1 
461 415 287 1 
462 416 418 1 
463 416 422 1 
464 416 423 1 
465 417 193 1 
466 417 427 1 
467 418 415 1 
468 418 419 1 
469 418 421 1 
470 419 420 2 
471 428 17 1 
472 429 431 1 
473 429 428 1 
474 429 442 1 
475 430 428 2 
476 431 433 1 
477 431 18 1 
478 432 429 1 
479 432 440 1 
480 432 441 1 
481 433 438 1 
482 433 439 1 
483 434 432 1 
484 434 433 1 
485 434 435 1 
486 434 436 1 
487 435 486 1 
488 437 436 2 
489 444 443 2 
490 444 448 1 
491 445 190 1 
492 445 443 1 
493 445 446 1 
494 445 447 1 
495 449 450 1 
496 449 451 1 
497 450 532 1 
498 452 451 1 
499 453 451 1 
500 454 451 1 
501 455 450 1 
502 456 450 1 
503 457 449 1 
504 458 449 1 
505 459 461 1 
506 459 467 1 
507 459 468 1 
508 460 459 1 
509 460 465 1 
510 460 466 1 
511 462 461 1 
512 463 461 1 
513 464 461 1 
514 469 477 1 
515 469 478 1 
516 470 469 1 
517 470 471 1 
518 470 475 1 
519 470 476 1 
520 472 471 1 
521 473 471 1 
522 474 471 1 
523 479 480 1 
524 479 483 1 
525 479 484 1 
526 479 485 1 
527 480 192 1 
528 480 481 1 
529 480 482 1 
530 486 494 1 
531 486 495 1 
532 487 486 1 
533 487 488 1 
534 487 492 1 
535 487 493 1 
536 489 488 1 
537 490 488 1 
538 491 488 1 
539 496 497 1 
540 496 499 1 
541 496 509 1 
542 497 263 1 
543 498 496 1 
544 498 507 1 
545 498 508 1 
546 499 262 1 
547 499 502 2 
548 500 501 1 
549 500 497 1 
550 500 505 1 
551 500 506 1 
552 501 498 1 
553 501 504 1 
554 503 501 1 
555 503 510 1 
556 511 512 2 
557 511 241 1 
558 511 516 1 
559 512 245 1 
560 513 262 1 
561 513 512 1 
562 513 514 1 
563 513 515 1 
564 518 519 1 
565 518 517 1 
566 520 519 1 
567 521 519 1 
568 522 518 1 
569 523 518 1 
570 524 517 1 
571 525 517 1 
572 526 517 1 
573 528 529 1 
574 528 527 2 
575 529 530 1 
576 529 532 1 
577 530 533 1 
578 531 529 1 
579 531 534 1 
580 533 534 1 
581 534 42 1 
582 535 46 1 
583 535 533 1 
584 535 536 2 
585 537 533 1 
586 538 531 1 
587 539 531 1 
588 540 530 1 
589 541 530 1 
590 542 550 1 
591 542 551 1 
592 543 542 1 
593 543 544 1 
594 543 548 1 
595 543 549 1 
596 545 544 1 
597 546 544 1 
598 547 544 1 
599 552 553 1 
600 552 565 1 
601 553 556 1 
602 553 563 1 
603 553 564 1 
604 554 552 1 
605 554 557 1 
606 554 561 1 
607 554 562 1 
608 555 552 1 
609 555 256 1 
610 555 566 1 
611 556 557 1 
612 556 558 1 
613 556 560 1 
614 557 185 1 
615 558 190 1 
616 559 558 2 
617 567 222 1 
618 567 575 1 
619 567 576 1 
620 568 567 1 
621 568 569 1 
622 568 573 1 
623 568 574 1 
624 570 569 1 
625 571 569 1 
626 572 569 1 
627 577 578 1 
628 577 579 1 
629 580 579 1 
630 581 579 1 
631 582 579 1 
632 583 578 1 
633 584 578 1 
634 585 577 1 
635 586 577 1 
636 587 592 1 
637 587 593 1 
638 588 587 1 
639 588 589 1 
640 588 590 1 
641 588 591 1 
642 594 258 1 
643 594 599 1 
644 594 600 1 
645 595 594 1 
646 595 596 1 
647 595 597 1 
648 595 598 1 
@<TRIPOS>SUBSTRUCTURE
1 NIL_1 1 RESIDUE 1 A NIL 1
2 NIL_2 11 RESIDUE 1 A NIL 1
3 NIL_3 26 RESIDUE 1 A NIL 1
4 NIL_4 41 RESIDUE 1 A NIL 1
5 NIL_5 56 RESIDUE 1 A NIL 1
6 NIL_6 71 RESIDUE 1 A NIL 1
7 NIL_7 113 RESIDUE 1 A NIL 1
8 NIL_8 128 RESIDUE 1 A NIL 1
9 NIL_9 170 RESIDUE 1 A NIL 1
10 NIL_10 185 RESIDUE 1 A NIL 1
11 NIL_11 200 RESIDUE 1 A NIL 1
12 NIL_12 215 RESIDUE 1 A NIL 1
13 NIL_13 230 RESIDUE 1 A NIL 1
14 NIL_14 240 RESIDUE 1 A NIL 1
15 NIL_15 255 RESIDUE 1 A NIL 1
16 NIL_16 270 RESIDUE 1 A NIL 1
17 NIL_17 280 RESIDUE 1 A NIL 1
18 NIL_18 295 RESIDUE 1 A NIL 1
19 NIL_19 310 RESIDUE 1 A NIL 1
20 NIL_20 325 RESIDUE 1 A NIL 1
21 NIL_21 331 RESIDUE 1 A NIL 1
22 NIL_22 341 RESIDUE 1 A NIL 1
23 NIL_23 356 RESIDUE 1 A NIL 1
24 NIL_24 371 RESIDUE 1 A NIL 1
25 NIL_25 413 RESIDUE 1 A NIL 1
26 NIL_26 428 RESIDUE 1 A NIL 1
27 NIL_27 443 RESIDUE 1 A NIL 1
28 NIL_28 449 RESIDUE 1 A NIL 1
29 NIL_29 459 RESIDUE 1 A NIL 1
30 NIL_30 469 RESIDUE 1 A NIL 1
31 NIL_31 479 RESIDUE 1 A NIL 1
32 NIL_32 486 RESIDUE 1 A NIL 1
33 NIL_33 496 RESIDUE 1 A NIL 1
34 NIL_34 511 RESIDUE 1 A NIL 1
35 NIL_35 517 RESIDUE 1 A NIL 1
36 NIL_36 527 RESIDUE 1 A NIL 1
37 NIL_37 542 RESIDUE 1 A NIL 1
38 NIL_38 552 RESIDUE 1 A NIL 1
39 NIL_39 567 RESIDUE 1 A NIL 1
40 NIL_40 577 RESIDUE 1 A NIL 1
41 NIL_41 587 RESIDUE 1 A NIL 1
42 NIL_42 594 RESIDUE 1 A NIL 1
