@<TRIPOS>MOLECULE
NIL
642 693 45 0 0
POLYMER
CHARGES


@<TRIPOS>ATOM
1 C_3691 -5.6162 2.49255 -19.1705 C.2 1 NIL_1    0.000
2 C_3689 -4.929 3.657 -19.078 C.2 1 NIL_1    0.000
3 C_3693 -5.429 1.427 -18.372 C.2 1 NIL_1    0.000
4 C_3585 -3.976 3.889 -18.166 C.2 1 NIL_1    0.000
5 C_3695 -4.477 1.669 -17.458 C.2 1 NIL_1    0.000
6 C_3705 -6.253 0.037 -18.511 C.3 1 NIL_1    0.000
7 C_1296 -3.145 5.120 -18.090 C.2 1 NIL_1    0.000
8 C_3697 -3.790 2.831 -17.360 C.2 1 NIL_1    0.000
9 NH -5.710 -1.187 -17.681 N.am 1 NIL_1    0.000
10 O -3.215 5.995 -18.930 O.2 1 NIL_1    0.000
11 C_2350 -4.666 -2.121 -17.888 C.2 1 NIL_1    0.000
12 C_2345 -4.385 -3.355 -16.891 C.3 1 NIL_1    0.000
13 O -3.944 -1.988 -18.855 O.2 1 NIL_1    0.000
14 N -3.300 -4.436 -17.016 N.am 1 NIL_1    0.000
15 C_2346 -4.188 -2.790 -15.396 C.3 1 NIL_1    0.000
16 C_2348 -2.742 -4.606 -15.617 C.3 1 NIL_1    0.000
17 C_2347 -3.625 -3.926 -14.493 C.3 1 NIL_1    0.000
18 N -4.751 -4.773 -14.050 N.am 1 NIL_1    0.000
19 C_2359 -2.829 -3.420 -13.228 C.2 1 NIL_1    0.000
20 C_3508 -5.641 -5.070 -15.168 C.3 1 NIL_1    0.000
21 O -1.922 -2.625 -13.366 O.2 1 NIL_1    0.000
22 C_3510 -6.363 -3.811 -15.675 C.3 1 NIL_1    0.000
23 C_3512 -7.188 -3.164 -14.576 C.3 1 NIL_1    0.000
24 H_35121 -7.924 -3.873 -14.193 H 1 NIL_1    0.000
25 H_35122 -7.713 -2.287 -14.962 H 1 NIL_1    0.000
26 H_35123 -6.542 -2.849 -13.754 H 1 NIL_1    0.000
27 H_35101 -6.995 -4.075 -16.528 H 1 NIL_1    0.000
28 H_35102 -5.668 -3.072 -16.017 H 1 NIL_1    0.000
29 H_35081 -6.384 -5.802 -14.844 H 1 NIL_1    0.000
30 H_35082 -5.048 -5.507 -15.975 H 1 NIL_1    0.000
31 H_23481 -1.783 -4.137 -15.570 H 1 NIL_1    0.000
32 H_23482 -2.628 -5.671 -15.400 H 1 NIL_1    0.000
33 H_23461 -3.481 -1.977 -15.446 H 1 NIL_1    0.000
34 H_23462 -5.130 -2.388 -14.982 H 1 NIL_1    0.000
35 H_2345 -5.347 -3.917 -16.908 H 1 NIL_1    0.000
36 H_3697 -3.040 2.897 -16.609 H 1 NIL_1    0.000
37 H_37051 -7.286 0.214 -18.202 H 1 NIL_1    0.000
38 H_37052 -6.269 -0.258 -19.564 H 1 NIL_1    0.000
39 H_3695 -4.234 0.875 -16.756 H 1 NIL_1    0.000
40 H_3689 -5.155 4.444 -19.795 H 1 NIL_1    0.000
41 H_3691 -6.366 2.408 -19.952 H 1 NIL_1    0.000
42 HH -6.255 -1.356 -16.848 H 1 NIL_1    0.000
43 C_3522 7.477 -2.187 -15.152 C.3 2 NIL_2    0.000
44 N 6.635 -1.640 -14.095 N.am 2 NIL_2    0.000
45 C_3524 8.865 -2.531 -14.604 C.3 2 NIL_2    0.000
46 C_2829 5.268 -1.346 -14.579 C.3 2 NIL_2    0.000
47 C_3526 9.542 -1.252 -14.091 C.3 2 NIL_2    0.000
48 C_2828 4.763 -2.498 -15.505 C.3 2 NIL_2    0.000
49 C_2830 5.247 -0.209 -15.683 C.3 2 NIL_2    0.000
50 C_2841 4.333 -1.151 -13.328 C.2 2 NIL_2    0.000
51 C_2827 5.230 -2.267 -16.991 C.3 2 NIL_2    0.000
52 N 5.503 -0.733 -17.087 N.am 2 NIL_2    0.000
53 O 3.130 -1.085 -13.477 O.2 2 NIL_2    0.000
54 C_2832 4.239 -3.082 -17.970 C.2 2 NIL_2    0.000
55 O 3.768 -2.527 -18.942 O.2 2 NIL_2    0.000
56 NH 3.908 -4.437 -17.731 N.am 2 NIL_2    0.000
57 C_3643 3.084 -5.503 -18.544 C.3 2 NIL_2    0.000
58 C_3631 1.466 -5.476 -18.382 C.2 2 NIL_2    0.000
59 C_3629 0.618 -6.040 -19.259 C.2 2 NIL_2    0.000
60 C_3633 0.799 -4.893 -17.373 C.2 2 NIL_2    0.000
61 C_3627 -0.734 -6.018 -19.151 C.2 2 NIL_2    0.000
62 C_3635 -0.553 -4.867 -17.263 C.2 2 NIL_2    0.000
63 C_2378 -1.394 -5.425 -18.147 C.2 2 NIL_2    0.000
64 C_2349 -2.879 -5.311 -18.067 C.2 2 NIL_2    0.000
65 O -3.591 -5.724 -18.958 O.2 2 NIL_2    0.000
66 H_3635 -0.949 -4.354 -16.446 H 2 NIL_2    0.000
67 H_3627 -1.316 -6.491 -19.937 H 2 NIL_2    0.000
68 H_3633 1.380 -4.397 -16.600 H 2 NIL_2    0.000
69 H_3629 1.047 -6.541 -20.123 H 2 NIL_2    0.000
70 H_36431 3.448 -6.492 -18.256 H 2 NIL_2    0.000
71 H_36432 3.323 -5.362 -19.601 H 2 NIL_2    0.000
72 H_2827 6.202 -2.753 -17.104 H 2 NIL_2    0.000
73 H_28301 4.264 0.257 -15.667 H 2 NIL_2    0.000
74 H_28302 5.993 0.552 -15.436 H 2 NIL_2    0.000
75 H_28281 3.672 -2.484 -15.494 H 2 NIL_2    0.000
76 H_28282 5.089 -3.471 -15.135 H 2 NIL_2    0.000
77 H_35261 10.511 -1.485 -13.648 H 2 NIL_2    0.000
78 H_35262 8.931 -0.750 -13.346 H 2 NIL_2    0.000
79 H_35263 9.689 -0.552 -14.912 H 2 NIL_2    0.000
80 H_35241 9.475 -2.982 -15.388 H 2 NIL_2    0.000
81 H_35242 8.764 -3.253 -13.791 H 2 NIL_2    0.000
82 H_35221 7.572 -1.441 -15.946 H 2 NIL_2    0.000
83 H_35222 7.003 -3.084 -15.558 H 2 NIL_2    0.000
84 HH 4.314 -4.823 -16.891 H 2 NIL_2    0.000
85 N -4.753 -4.775 -3.788 N.am 3 NIL_3    0.000
86 C_2464 -3.460 -4.236 -4.267 C.3 3 NIL_3    0.000
87 C_2463 -3.746 -2.913 -5.013 C.3 3 NIL_3    0.000
88 C_2465 -2.869 -5.011 -5.542 C.3 3 NIL_3    0.000
89 C_2476 -2.489 -4.034 -3.038 C.2 3 NIL_3    0.000
90 C_2462 -4.138 -3.388 -6.538 C.3 3 NIL_3    0.000
91 N -3.317 -4.396 -6.860 N.am 3 NIL_3    0.000
92 O -1.385 -3.559 -3.217 O.2 3 NIL_3    0.000
93 C_2467 -4.361 -2.271 -7.529 C.2 3 NIL_3    0.000
94 O -4.720 -1.150 -7.235 O.2 3 NIL_3    0.000
95 H_2462 -5.183 -3.836 -6.433 H 3 NIL_3    0.000
96 H_24651 -1.778 -4.971 -5.501 H 3 NIL_3    0.000
97 H_24652 -3.183 -6.059 -5.515 H 3 NIL_3    0.000
98 H_24631 -2.874 -2.301 -5.083 H 3 NIL_3    0.000
99 H_24632 -4.551 -2.330 -4.517 H 3 NIL_3    0.000
100 C_268 -0.886 7.577 18.154 C.3 4 NIL_4    0.000
101 C_267 -0.049 6.381 17.661 C.3 4 NIL_4    0.000
102 C.fa -1.649 7.069 19.396 C.3 4 NIL_4    0.000
103 N 0.239 5.578 18.833 N.am 4 NIL_4    0.000
104 C_272 1.192 6.770 16.899 C.2 4 NIL_4    0.000
105 C_270 -0.800 5.845 19.845 C.3 4 NIL_4    0.000
106 NH -3.039 6.683 19.098 N.am 4 NIL_4    0.000
107 O 1.221 7.742 16.172 O.2 4 NIL_4    0.000
108 H_2701 -0.318 6.055 20.802 H 4 NIL_4    0.000
109 H_2702 -1.437 4.963 19.948 H 4 NIL_4    0.000
110 H.fa -1.655 7.836 20.175 H 4 NIL_4    0.000
111 H_267 -0.654 5.767 16.987 H 4 NIL_4    0.000
112 H_2681 -1.563 7.951 17.383 H 4 NIL_4    0.000
113 H_2682 -0.211 8.380 18.456 H 4 NIL_4    0.000
114 HH -3.133 5.768 18.694 H 4 NIL_4    0.000
115 C_2530 -5.260 -4.507 6.275 C.3 5 NIL_5    0.000
116 C_2531 -5.428 -3.013 5.962 C.3 5 NIL_5    0.000
117 C_3500 -6.744 -2.767 5.216 C.3 5 NIL_5    0.000
118 H_35001 -6.754 -3.317 4.273 H 5 NIL_5    0.000
119 H_35002 -6.865 -1.703 5.001 H 5 NIL_5    0.000
120 H_35003 -7.590 -3.100 5.822 H 5 NIL_5    0.000
121 H_25311 -4.722 -2.685 5.301 H 5 NIL_5    0.000
122 H_25312 -5.417 -2.441 6.892 H 5 NIL_5    0.000
123 H_25301 -6.071 -4.831 6.932 H 5 NIL_5    0.000
124 H_25302 -5.305 -5.082 5.347 H 5 NIL_5    0.000
125 C_728 -6.538 5.541 17.034 C.3 6 NIL_6    0.000
126 C_727 -5.636 4.380 17.499 C.3 6 NIL_6    0.000
127 N -5.853 6.787 17.436 N.3 6 NIL_6    0.000
128 C_726 -4.862 5.040 18.667 C.3 6 NIL_6    0.000
129 N -4.745 3.942 16.402 N.am 6 NIL_6    0.000
130 C_738 -6.471 3.223 18.030 C.2 6 NIL_6    0.000
131 C_725 -5.344 6.509 18.786 C.3 6 NIL_6    0.000
132 O -7.556 3.392 18.547 O.2 6 NIL_6    0.000
133 C_729 -4.197 7.382 19.279 C.2 6 NIL_6    0.000
134 O -4.278 8.503 19.737 O.2 6 NIL_6    0.000
135 H_725 -6.165 6.568 19.506 H 6 NIL_6    0.000
136 H_7261 -3.798 5.014 18.441 H 6 NIL_6    0.000
137 H_7262 -5.027 4.504 19.604 H 6 NIL_6    0.000
138 H_7281 -6.713 5.513 15.956 H 6 NIL_6    0.000
139 H_7282 -7.493 5.482 17.561 H 6 NIL_6    0.000
140 C_2960 4.942 -0.317 1.953 C.2 7 NIL_7    0.000
141 C_2956 5.446 -1.189 0.739 C.3 7 NIL_7    0.000
142 O 4.133 0.570 1.768 O.2 7 NIL_7    0.000
143 C_2955 6.579 -0.533 -0.114 C.3 7 NIL_7    0.000
144 C_2957 4.381 -1.437 -0.431 C.3 7 NIL_7    0.000
145 N 5.953 -2.462 1.305 N.am 7 NIL_7    0.000
146 C_2954 6.102 -0.347 -1.599 C.3 7 NIL_7    0.000
147 N 4.938 -1.165 -1.814 N.am 7 NIL_7    0.000
148 C_2959 7.131 -0.564 -2.695 C.2 7 NIL_7    0.000
149 O 8.312 -0.379 -2.484 O.2 7 NIL_7    0.000
150 H_2954 5.765 0.686 -1.712 H 7 NIL_7    0.000
151 H_29571 4.021 -2.467 -0.388 H 7 NIL_7    0.000
152 H_29572 3.527 -0.772 -0.274 H 7 NIL_7    0.000
153 H_29551 7.448 -1.195 -0.103 H 7 NIL_7    0.000
154 H_29552 6.879 0.424 0.312 H 7 NIL_7    0.000
155 N 1.307 -6.151 18.082 N.am 8 NIL_8    0.000
156 C_3832 1.057 -4.894 17.403 C.3 8 NIL_8    0.000
157 C_3835 2.697 -6.173 18.570 C.3 8 NIL_8    0.000
158 C_3833 2.442 -4.326 17.022 C.3 8 NIL_8    0.000
159 C_3837 0.112 -5.067 16.234 C.2 8 NIL_8    0.000
160 C_3834 3.476 -4.974 17.969 C.3 8 NIL_8    0.000
161 O 0.161 -4.358 15.250 O.2 8 NIL_8    0.000
162 N 4.631 -5.466 17.204 N.am 8 NIL_8    0.000
163 C_3841 3.902 -4.014 19.074 C.2 8 NIL_8    0.000
164 H 4.497 -6.333 16.705 H 8 NIL_8    0.000
165 O 3.198 -3.797 20.039 O.2 8 NIL_8    0.000
166 H_38331 2.678 -4.623 15.999 H 8 NIL_8    0.000
167 H_38332 2.465 -3.236 17.086 H 8 NIL_8    0.000
168 H_38351 3.171 -7.108 18.261 H 8 NIL_8    0.000
169 H_38352 2.703 -6.103 19.661 H 8 NIL_8    0.000
170 H_3832 0.572 -4.223 18.116 H 8 NIL_8    0.000
171 C_3502 -1.274 -0.645 1.314 C.3 9 NIL_9    0.000
172 C_2529 -1.793 -1.396 0.080 C.3 9 NIL_9    0.000
173 C_2528 -3.226 -1.890 0.324 C.3 9 NIL_9    0.000
174 H_25281 -3.858 -1.043 0.600 H 9 NIL_9    0.000
175 H_25282 -3.613 -2.333 -0.597 H 9 NIL_9    0.000
176 H_25291 -1.777 -0.727 -0.782 H 9 NIL_9    0.000
177 H_25292 -1.124 -2.210 -0.134 H 9 NIL_9    0.000
178 H_35021 -1.259 -1.306 2.182 H 9 NIL_9    0.000
179 H_35022 -1.920 0.206 1.538 H 9 NIL_9    0.000
180 H_35023 -0.262 -0.276 1.139 H 9 NIL_9    0.000
181 C_3887 -6.668 0.716 18.124 C.3 10 NIL_10    0.000
182 C_3886 -5.824 -0.473 17.593 C.3 10 NIL_10    0.000
183 N -5.969 1.981 17.846 N.am 10 NIL_10    0.000
184 C_3885 -4.647 0.231 16.873 C.3 10 NIL_10    0.000
185 N -6.618 -1.254 16.632 N.am 10 NIL_10    0.000
186 C_3892 -5.342 -1.327 18.764 C.2 10 NIL_10    0.000
187 C_3884 -4.634 1.699 17.356 C.3 10 NIL_10    0.000
188 H -7.224 -0.722 16.025 H 10 NIL_10    0.000
189 O -4.979 -0.829 19.810 O.2 10 NIL_10    0.000
190 C_3888 -4.198 2.705 16.311 C.2 10 NIL_10    0.000
191 O -3.464 2.388 15.418 O.2 10 NIL_10    0.000
192 H_3884 -3.949 1.795 18.202 H 10 NIL_10    0.000
193 H_38851 -4.829 0.213 15.795 H 10 NIL_10    0.000
194 H_38852 -3.695 -0.265 17.070 H 10 NIL_10    0.000
195 H_38871 -7.639 0.731 17.623 H 10 NIL_10    0.000
196 H_38872 -6.820 0.618 19.201 H 10 NIL_10    0.000
197 C_2292 6.613 1.389 15.312 C.3 11 NIL_11    0.000
198 C_243 5.779 0.950 14.116 C.2 11 NIL_11    0.000
199 O 4.605 1.000 14.068 O.2 11 NIL_11    0.000
200 H_22921 7.165 0.517 15.673 H 11 NIL_11    0.000
201 H_22922 7.320 2.146 14.964 H 11 NIL_11    0.000
202 C_2474 -3.181 -4.260 0.838 C.3 12 NIL_12    0.000
203 C_2473 -4.479 -4.675 0.059 C.3 12 NIL_12    0.000
204 C_2475 -2.174 -4.226 -0.408 C.3 12 NIL_12    0.000
205 C_2478 -2.856 -5.235 2.040 C.2 12 NIL_12    0.000
206 N -3.294 -2.891 1.386 N.am 12 NIL_12    0.000
207 C_2472 -4.080 -5.083 -1.405 C.3 12 NIL_12    0.000
208 N -2.886 -4.357 -1.741 N.am 12 NIL_12    0.000
209 O -2.435 -6.352 1.816 O.2 12 NIL_12    0.000
210 C_2477 -5.136 -5.022 -2.499 C.2 12 NIL_12    0.000
211 O -6.306 -5.213 -2.240 O.2 12 NIL_12    0.000
212 H_2472 -3.778 -6.133 -1.369 H 12 NIL_12    0.000
213 H_24751 -1.624 -3.325 -0.400 H 12 NIL_12    0.000
214 H_24752 -1.475 -5.062 -0.324 H 12 NIL_12    0.000
215 H_24731 -5.155 -3.818 0.018 H 12 NIL_12    0.000
216 H_24732 -4.998 -5.494 0.564 H 12 NIL_12    0.000
217 C_2521 -4.301 -1.585 -9.880 C.3 13 NIL_13    0.000
218 C_2522 -3.174 -1.447 -10.878 C.3 13 NIL_13    0.000
219 C_3506 -1.849 -1.041 -10.114 C.3 13 NIL_13    0.000
220 H_35061 -1.590 -1.788 -9.347 H 13 NIL_13    0.000
221 H_35062 -2.017 -0.093 -9.643 H 13 NIL_13    0.000
222 H_35063 -1.018 -0.969 -10.814 H 13 NIL_13    0.000
223 H_25221 -3.351 -0.795 -11.654 H 13 NIL_13    0.000
224 H_25222 -3.056 -2.393 -11.441 H 13 NIL_13    0.000
225 H_25211 -4.442 -0.607 -9.415 H 13 NIL_13    0.000
226 H_25212 -5.210 -1.849 -10.426 H 13 NIL_13    0.000
227 C_111 -1.432 -8.378 17.069 C.3 14 NIL_14    0.000
228 C_110 -0.915 -6.986 17.484 C.3 14 NIL_14    0.000
229 N -2.843 -8.465 17.497 N.3 14 NIL_14    0.000
230 C_109 -2.026 -6.504 18.458 C.3 14 NIL_14    0.000
231 N -0.746 -6.113 16.297 N.am 14 NIL_14    0.000
232 C_137 0.392 -7.133 18.249 C.2 14 NIL_14    0.000
233 C_108 -2.932 -7.726 18.763 C.3 14 NIL_14    0.000
234 O 0.625 -8.106 18.934 O.2 14 NIL_14    0.000
235 C_113 -4.329 -7.289 19.198 C.2 14 NIL_14    0.000
236 O -5.230 -8.015 19.566 O.2 14 NIL_14    0.000
237 H_108 -2.490 -8.313 19.572 H 14 NIL_14    0.000
238 H_1091 -2.616 -5.728 17.961 H 14 NIL_14    0.000
239 H_1092 -1.605 -6.083 19.375 H 14 NIL_14    0.000
240 H_1111 -1.338 -8.526 15.990 H 14 NIL_14    0.000
241 H_1112 -0.857 -9.142 17.598 H 14 NIL_14    0.000
242 C_2855 4.720 -1.307 6.943 C.2 15 NIL_15    0.000
243 C_2849 5.635 -0.726 5.845 C.3 15 NIL_15    0.000
244 O 3.821 -2.057 6.620 O.2 15 NIL_15    0.000
245 C_2848 5.795 -2.289 5.823 C.3 15 NIL_15    0.000
246 C_2850 4.891 -0.056 4.593 C.3 15 NIL_15    0.000
247 N 6.631 0.141 6.529 N.am 15 NIL_15    0.000
248 C_2847 5.862 -1.358 3.289 C.3 15 NIL_15    0.000
249 N 5.351 -0.607 3.243 N.am 15 NIL_15    0.000
250 C_2852 6.310 -2.789 2.443 C.2 15 NIL_15    0.000
251 O 6.910 -3.747 2.866 O.2 15 NIL_15    0.000
252 H_2847 7.345 -0.590 2.942 H 15 NIL_15    0.000
253 H_28501 3.821 -0.244 4.674 H 15 NIL_15    0.000
254 H_28502 5.057 1.026 4.611 H 15 NIL_15    0.000
255 H_28481 5.674 -2.784 5.145 H 15 NIL_15    0.000
256 H_28482 7.256 -2.282 5.731 H 15 NIL_15    0.000
257 C_3520 5.761 -5.636 -8.932 C.3 16 NIL_16    0.000
258 C_3007 4.409 -5.136 -9.469 C.3 16 NIL_16    0.000
259 C_3006 4.544 -3.708 -10.017 C.3 16 NIL_16    0.000
260 H_30061 5.247 -3.697 -10.853 H 16 NIL_16    0.000
261 H_30062 3.569 -3.363 -10.372 H 16 NIL_16    0.000
262 H_30071 4.060 -5.806 -10.256 H 16 NIL_16    0.000
263 H_30072 3.671 -5.149 -8.665 H 16 NIL_16    0.000
264 H_35201 6.225 -4.990 -8.233 H 16 NIL_16    0.000
265 H_35202 6.492 -5.707 -9.732 H 16 NIL_16    0.000
266 H_35203 5.641 -6.620 -8.475 H 16 NIL_16    0.000
267 C_262 8.607 -0.245 19.435 C.2 17 NIL_17    0.000
268 C_257 8.263 1.165 18.979 C.3 17 NIL_17    0.000
269 O 9.688 -0.640 19.823 O.2 17 NIL_17    0.000
270 N 8.888 1.629 17.737 N.3 17 NIL_17    0.000
271 C_258 6.759 1.238 18.625 C.3 17 NIL_17    0.000
272 C_260 8.037 2.728 17.231 C.3 17 NIL_17    0.000
273 C_259 6.578 2.379 17.599 C.3 17 NIL_17    0.000
274 N 5.800 1.945 16.414 N.am 17 NIL_17    0.000
275 C_271 5.927 3.559 18.303 C.2 17 NIL_17    0.000
276 O 6.569 4.349 18.965 O.2 17 NIL_17    0.000
277 H_2601 8.155 2.855 16.153 H 17 NIL_17    0.000
278 H_2602 8.315 3.654 17.740 H 17 NIL_17    0.000
279 H_2581 6.454 0.297 18.163 H 17 NIL_17    0.000
280 H_2582 6.146 1.399 19.515 H 17 NIL_17    0.000
281 H_257 8.485 1.862 19.790 H 17 NIL_17    0.000
282 N 6.715 -0.997 -3.923 N.am 18 NIL_18    0.000
283 C_2946 5.334 -1.301 -4.364 C.3 18 NIL_18    0.000
284 C_2945 5.312 -2.622 -5.194 C.3 18 NIL_18    0.000
285 C_2947 4.806 -0.371 -5.525 C.3 18 NIL_18    0.000
286 C_2958 4.428 -1.444 -3.078 C.2 18 NIL_18    0.000
287 C_2944 5.722 -2.273 -6.660 C.3 18 NIL_18    0.000
288 N 4.850 -1.060 -6.871 N.am 18 NIL_18    0.000
289 O 3.300 -1.884 -3.175 O.2 18 NIL_18    0.000
290 C_2949 5.319 -3.259 -7.739 C.2 18 NIL_18    0.000
291 O 5.140 -4.396 -7.429 O.2 18 NIL_18    0.000
292 H_2944 6.811 -2.191 -6.715 H 18 NIL_18    0.000
293 H_29471 3.781 -0.238 -5.518 H 18 NIL_18    0.000
294 H_29472 4.946 1.062 -4.905 H 18 NIL_18    0.000
295 H_29451 4.289 -3.005 -5.206 H 18 NIL_18    0.000
296 H_29452 5.962 -3.384 -4.758 H 18 NIL_18    0.000
297 C_1480 -5.333 5.219 5.729 C.3 19 NIL_19    0.000
298 C_1481 -4.974 5.083 4.243 C.3 19 NIL_19    0.000
299 C_3528 -4.327 3.720 3.972 C.3 19 NIL_19    0.000
300 H_35281 -5.015 2.938 4.208 H 19 NIL_19    0.000
301 H_35282 -3.538 3.911 4.088 H 19 NIL_19    0.000
302 H_35283 -4.120 3.600 2.934 H 19 NIL_19    0.000
303 H_14811 -4.373 5.754 4.243 H 19 NIL_19    0.000
304 H_14812 -5.873 5.185 3.633 H 19 NIL_19    0.000
305 H_14801 -5.762 6.207 5.912 H 19 NIL_19    0.000
306 H_14802 -6.076 4.460 5.989 H 19 NIL_19    0.000
307 C_2948 5.008 -0.458 -8.233 C.2 20 NIL_20    0.000
308 C_2937 5.169 -1.405 -9.481 C.3 20 NIL_20    0.000
309 O 4.688 0.701 -8.378 O.2 20 NIL_20    0.000
310 C_2936 6.523 -1.269 -10.259 C.3 20 NIL_20    0.000
311 C_2938 4.171 -1.118 -10.696 C.3 20 NIL_20    0.000
312 N 5.026 -2.791 -8.986 N.am 20 NIL_20    0.000
313 C_2935 6.247 -0.877 -11.758 C.3 20 NIL_20    0.000
314 N 4.859 -1.125 -12.043 N.am 20 NIL_20    0.000
315 C_2939 7.136 -1.480 -12.833 C.2 20 NIL_20    0.000
316 O 8.255 -1.850 -12.560 O.2 20 NIL_20    0.000
317 H_2935 6.381 0.205 -11.849 H 20 NIL_20    0.000
318 H_29381 3.370 -1.861 -10.702 H 20 NIL_20    0.000
319 H_29382 3.725 -0.130 -10.561 H 20 NIL_20    0.000
320 H_29361 7.042 -2.230 -10.231 H 20 NIL_20    0.000
321 H_29362 7.167 -0.526 -9.785 H 20 NIL_20    0.000
322 C_1297 0.558 5.058 -17.895 C.2 21 NIL_21    0.000
323 C_1292 -0.669 5.546 -16.958 C.3 21 NIL_21    0.000
324 O 0.347 4.240 -18.768 O.2 21 NIL_21    0.000
325 NH 1.876 5.551 -17.734 N.am 21 NIL_21    0.000
326 N -2.129 5.007 -17.090 N.am 21 NIL_21    0.000
327 C_1293 -0.302 5.302 -15.438 C.3 21 NIL_21    0.000
328 C_3668 3.222 5.351 -18.534 C.3 21 NIL_21    0.000
329 C_1295 -2.457 4.432 -15.728 C.3 21 NIL_21    0.000
330 C_1294 -1.588 5.066 -14.573 C.3 21 NIL_21    0.000
331 C_3656 4.014 3.940 -18.381 C.2 21 NIL_21    0.000
332 N -2.152 6.350 -14.098 N.am 21 NIL_21    0.000
333 C_1306 -1.308 4.158 -13.318 C.2 21 NIL_21    0.000
334 C_3654 5.049 3.576 -19.159 C.2 21 NIL_21    0.000
335 C_3658 3.733 2.986 -17.478 C.2 21 NIL_21    0.000
336 C_3544 -2.060 7.382 -15.127 C.3 21 NIL_21    0.000
337 O -0.621 3.163 -13.430 O.2 21 NIL_21    0.000
338 C_3652 5.713 2.399 -19.064 C.2 21 NIL_21    0.000
339 C_3660 4.397 1.809 -17.376 C.2 21 NIL_21    0.000
340 C_3546 -0.612 7.831 -15.361 C.3 21 NIL_21    0.000
341 C_3574 5.422 1.446 -18.164 C.2 21 NIL_21    0.000
342 C_3548 -0.559 8.849 -16.507 C.3 21 NIL_21    0.000
343 C_2831 6.081 0.114 -18.090 C.2 21 NIL_21    0.000
344 O 6.872 -0.249 -18.937 O.2 21 NIL_21    0.000
345 H_35481 -1.140 9.737 -16.251 H 21 NIL_21    0.000
346 H_35482 -0.972 8.412 -17.419 H 21 NIL_21    0.000
347 H_35483 0.472 9.148 -16.700 H 21 NIL_21    0.000
348 H_35461 -0.028 7.070 -15.684 H 21 NIL_21    0.000
349 H_35462 -0.211 8.275 -14.447 H 21 NIL_21    0.000
350 H_3660 4.064 1.110 -16.630 H 21 NIL_21    0.000
351 H_3652 6.521 2.209 -19.766 H 21 NIL_21    0.000
352 H_35441 -2.660 8.242 -14.818 H 21 NIL_21    0.000
353 H_35442 -2.472 6.983 -16.058 H 21 NIL_21    0.000
354 H_3658 2.911 3.166 -16.791 H 21 NIL_21    0.000
355 H_3654 5.369 4.274 -19.928 H 21 NIL_21    0.000
356 H_12951 -2.242 3.366 -15.752 H 21 NIL_21    0.000
357 H_12952 -3.520 4.580 -15.518 H 21 NIL_21    0.000
358 H_36681 3.901 6.152 -18.234 H 21 NIL_21    0.000
359 H_36682 2.994 5.497 -19.594 H 21 NIL_21    0.000
360 H_12931 0.322 4.412 -15.376 H 21 NIL_21    0.000
361 H_12932 0.317 6.039 -14.971 H 21 NIL_21    0.000
362 H_1292 -0.725 6.628 -17.110 H 21 NIL_21    0.000
363 HH 1.979 6.216 -16.982 H 21 NIL_21    0.000
364 C_1343 -2.946 4.870 11.869 C.3 22 NIL_22    0.000
365 NH -3.801 5.202 13.019 N.am 22 NIL_22    0.000
366 C_1335 -3.369 5.481 10.406 C.3 22 NIL_22    0.000
367 C_1323 -3.194 4.736 8.950 C.3 22 NIL_22    0.000
368 C_1319 -4.347 5.020 7.969 C.2 22 NIL_22    0.000
369 NH -1.931 4.875 8.171 N.am 22 NIL_22    0.000
370 O -5.461 5.219 8.408 O.2 22 NIL_22    0.000
371 H_1323 -3.291 3.666 9.150 H 22 NIL_22    0.000
372 H_13351 -4.444 5.655 10.490 H 22 NIL_22    0.000
373 H_13352 -2.931 6.479 10.325 H 22 NIL_22    0.000
374 H_13431 -2.951 3.781 11.785 H 22 NIL_22    0.000
375 H_13432 -1.922 5.177 12.099 H 22 NIL_22    0.000
376 HH -1.090 4.861 8.729 H 22 NIL_22    0.000
377 HH -4.440 5.979 12.943 H 22 NIL_22    0.000
378 N -3.160 -3.874 -11.955 N.am 23 NIL_23    0.000
379 C_2355 -4.093 -4.895 -11.644 C.3 23 NIL_23    0.000
380 C_2358 -2.531 -3.581 -10.544 C.3 23 NIL_23    0.000
381 C_2356 -4.648 -4.608 -10.202 C.3 23 NIL_23    0.000
382 C_2360 -5.076 -5.153 -12.778 C.2 23 NIL_23    0.000
383 C_2357 -3.552 -3.846 -9.381 C.3 23 NIL_23    0.000
384 O -6.132 -5.713 -12.568 O.2 23 NIL_23    0.000
385 N -4.081 -2.578 -8.829 N.am 23 NIL_23    0.000
386 C_2369 -2.989 -4.704 -8.179 C.2 23 NIL_23    0.000
387 O -2.244 -5.636 -8.399 O.2 23 NIL_23    0.000
388 H_23561 -5.535 -3.973 -10.273 H 23 NIL_23    0.000
389 H_23562 -4.931 -5.537 -9.702 H 23 NIL_23    0.000
390 H_23581 -2.165 -2.530 -10.472 H 23 NIL_23    0.000
391 H_23582 -1.647 -4.105 -10.475 H 23 NIL_23    0.000
392 H_2355 -3.496 -5.809 -11.583 H 23 NIL_23    0.000
393 O 3.826 1.705 15.385 O.2 24 NIL_24    0.000
394 C_3865 4.454 2.070 16.307 C.2 24 NIL_24    0.000
395 C_3861 3.740 2.767 17.447 C.3 24 NIL_24    0.000
396 N 4.599 3.720 18.120 N.am 24 NIL_24    0.000
397 C_3862 2.458 3.535 17.053 C.3 24 NIL_24    0.000
398 C_3864 3.784 4.828 18.632 C.3 24 NIL_24    0.000
399 C_3863 2.404 4.814 17.927 C.3 24 NIL_24    0.000
400 N 2.294 6.012 17.083 N.am 24 NIL_24    0.000
401 C_3869 1.290 4.733 18.969 C.2 24 NIL_24    0.000
402 H 3.132 6.276 16.588 H 24 NIL_24    0.000
403 O 1.366 3.987 19.923 O.2 24 NIL_24    0.000
404 H_38641 4.292 5.776 18.438 H 24 NIL_24    0.000
405 H_38642 3.650 4.703 19.710 H 24 NIL_24    0.000
406 H_38621 2.520 3.821 16.001 H 24 NIL_24    0.000
407 H_38622 1.568 2.917 17.194 H 24 NIL_24    0.000
408 H_3861 3.485 1.993 18.176 H 24 NIL_24    0.000
409 C_2376 -2.659 -5.172 9.084 C.3 25 NIL_25    0.000
410 C_2372 -3.965 -4.900 8.315 C.2 25 NIL_25    0.000
411 NH -1.553 -4.820 8.150 N.am 25 NIL_25    0.000
412 C_2388 -2.454 -4.540 10.586 C.3 25 NIL_25    0.000
413 O -5.009 -4.801 8.927 O.2 25 NIL_25    0.000
414 C_2396 -3.064 -5.053 12.023 C.3 25 NIL_25    0.000
415 NH -2.255 -5.934 12.882 N.am 25 NIL_25    0.000
416 H_23961 -3.266 -4.161 12.620 H 25 NIL_25    0.000
417 H_23962 -4.025 -5.541 11.843 H 25 NIL_25    0.000
418 H_23881 -2.759 -3.495 10.497 H 25 NIL_25    0.000
419 H_23882 -1.374 -4.496 10.741 H 25 NIL_25    0.000
420 H_2376 -2.621 -6.260 9.188 H 25 NIL_25    0.000
421 HH -2.265 -6.923 12.679 H 25 NIL_25    0.000
422 HH -0.646 -4.778 8.591 H 25 NIL_25    0.000
423 N -2.886 4.692 2.893 N.am 26 NIL_26    0.000
424 C_1312 -3.066 5.938 3.408 C.3 26 NIL_26    0.000
425 C_1315 -2.316 4.112 4.983 C.3 26 NIL_26    0.000
426 C_1313 -2.677 6.232 4.913 C.3 26 NIL_26    0.000
427 C_1317 -2.384 6.696 2.330 C.2 26 NIL_26    0.000
428 C_1314 -2.861 5.009 5.802 C.3 26 NIL_26    0.000
429 O -1.927 7.803 2.530 O.2 26 NIL_26    0.000
430 N -4.171 5.043 6.599 N.am 26 NIL_26    0.000
431 C_1320 -1.751 4.834 6.799 C.2 26 NIL_26    0.000
432 O -0.620 4.742 6.369 O.2 26 NIL_26    0.000
433 H_13131 -1.613 6.464 4.928 H 26 NIL_26    0.000
434 H_13132 -3.218 7.094 5.310 H 26 NIL_26    0.000
435 H_13151 -1.946 3.299 4.651 H 26 NIL_26    0.000
436 H_13152 -4.504 2.447 5.223 H 26 NIL_26    0.000
437 H_1312 -4.114 6.305 3.057 H 26 NIL_26    0.000
438 N -1.775 4.517 -12.060 N.am 27 NIL_27    0.000
439 C_1302 -2.798 5.507 -11.845 C.3 27 NIL_27    0.000
440 C_1305 -1.530 3.896 -10.705 C.3 27 NIL_27    0.000
441 C_1303 -2.817 5.883 -10.315 C.3 27 NIL_27    0.000
442 C_1307 -2.703 6.626 -12.876 C.2 27 NIL_27    0.000
443 C_1304 -1.978 4.841 -9.498 C.3 27 NIL_27    0.000
444 O -3.103 7.745 -12.628 O.2 27 NIL_27    0.000
445 N -0.806 5.520 -8.914 N.am 27 NIL_27    0.000
446 C_1316 -2.729 4.136 -8.305 C.2 27 NIL_27    0.000
447 O -3.436 3.170 -8.507 O.2 27 NIL_27    0.000
448 H_13031 -2.380 6.875 -10.175 H 27 NIL_27    0.000
449 H_13032 -3.846 5.914 -9.951 H 27 NIL_27    0.000
450 H_13051 -0.695 3.755 -10.765 H 27 NIL_27    0.000
451 H_13052 -2.099 2.966 -10.658 H 27 NIL_27    0.000
452 H_1302 -3.747 5.010 -12.067 H 27 NIL_27    0.000
453 N -3.028 -4.829 3.363 N.am 28 NIL_28    0.000
454 C_2365 -3.597 -3.569 3.762 C.3 28 NIL_28    0.000
455 C_2368 -2.786 -5.557 4.679 C.3 28 NIL_28    0.000
456 C_2366 -3.002 -3.249 5.177 C.3 28 NIL_28    0.000
457 C_2370 -3.470 -2.507 2.684 C.2 28 NIL_28    0.000
458 C_2367 -2.859 -4.593 5.962 C.3 28 NIL_28    0.000
459 O -3.517 -1.327 2.965 O.2 28 NIL_28    0.000
460 N -3.986 -4.776 6.934 N.am 28 NIL_28    0.000
461 C_2373 -1.563 -4.606 6.787 C.2 28 NIL_28    0.000
462 O -0.506 -4.396 6.227 O.2 28 NIL_28    0.000
463 H_23661 -2.018 -2.799 5.052 H 28 NIL_28    0.000
464 H_23662 -3.509 -2.521 5.765 H 28 NIL_28    0.000
465 H_23681 -1.799 -6.022 4.636 H 28 NIL_28    0.000
466 H_23682 -3.532 -6.349 4.784 H 28 NIL_28    0.000
467 H_2365 -4.671 -3.741 3.877 H 28 NIL_28    0.000
468 C_3514 7.580 -1.582 4.541 C.3 29 NIL_29    0.000
469 C_3013 7.358 0.130 4.248 C.3 29 NIL_29    0.000
470 C_3012 7.635 0.595 5.571 C.3 29 NIL_29    0.000
471 H_30121 8.618 0.254 5.906 H 29 NIL_29    0.000
472 H_30122 7.630 1.688 5.541 H 29 NIL_29    0.000
473 H_30131 8.156 0.342 3.485 H 29 NIL_29    0.000
474 H_30132 6.434 0.466 3.790 H 29 NIL_29    0.000
475 H_35141 8.194 -1.923 4.581 H 29 NIL_29    0.000
476 H_35142 7.468 -2.119 3.198 H 29 NIL_29    0.000
477 H_35143 7.035 -1.440 4.302 H 29 NIL_29    0.000
478 C_1415 -2.881 3.931 -5.656 C.3 30 NIL_30    0.000
479 C_1414 -2.525 4.872 -4.413 C.3 30 NIL_30    0.000
480 N -2.454 4.551 -6.983 N.am 30 NIL_30    0.000
481 C_1413 -1.454 5.726 -5.159 C.3 30 NIL_30    0.000
482 N -3.676 5.713 -3.985 N.am 30 NIL_30    0.000
483 C_1426 -1.876 4.232 -3.127 C.2 30 NIL_30    0.000
484 C_1412 -1.832 5.797 -6.676 C.3 30 NIL_30    0.000
485 O -0.817 3.642 -3.209 O.2 30 NIL_30    0.000
486 C_1417 -0.683 6.016 -7.649 C.2 30 NIL_30    0.000
487 O 0.339 6.573 -7.305 O.2 30 NIL_30    0.000
488 H_1412 -2.532 6.619 -6.835 H 30 NIL_30    0.000
489 H_14131 -0.491 5.218 -5.078 H 30 NIL_30    0.000
490 H_14132 -1.352 6.717 -4.714 H 30 NIL_30    0.000
491 H_14151 -2.301 3.012 -5.577 H 30 NIL_30    0.000
492 H_14152 -3.729 3.549 -5.539 H 30 NIL_30    0.000
493 C_2285 -1.436 -6.603 15.088 C.3 31 NIL_31    0.000
494 C_766 -1.812 -5.516 14.094 C.2 31 NIL_31    0.000
495 O -1.783 -4.338 14.381 O.2 31 NIL_31    0.000
496 H_22851 -2.355 -7.117 15.378 H 31 NIL_31    0.000
497 H_22852 -0.787 -7.310 14.562 H 31 NIL_31    0.000
498 N -2.453 4.416 -1.877 N.am 32 NIL_32    0.000
499 C_1422 -3.842 4.749 -1.694 C.3 32 NIL_32    0.000
500 C_1425 -1.912 4.147 -0.490 C.3 32 NIL_32    0.000
501 C_1423 -4.089 5.098 -0.174 C.3 32 NIL_32    0.000
502 C_1427 -4.296 5.734 -2.765 C.2 32 NIL_32    0.000
503 C_1424 -2.796 4.812 0.664 C.3 32 NIL_32    0.000
504 O -5.182 6.537 -2.550 O.2 32 NIL_32    0.000
505 C_1428 -2.967 3.933 1.933 C.2 32 NIL_32    0.000
506 N -2.232 6.103 1.108 N.am 32 NIL_32    0.000
507 O -3.080 2.717 1.856 O.2 32 NIL_32    0.000
508 H_14231 -4.362 6.152 -0.078 H 32 NIL_32    0.000
509 H_14232 -4.921 4.502 0.209 H 32 NIL_32    0.000
510 H_14251 -0.884 4.511 -0.425 H 32 NIL_32    0.000
511 H_14252 -1.909 3.064 -0.343 H 32 NIL_32    0.000
512 H_1422 -4.400 3.835 -1.908 H 32 NIL_32    0.000
513 C_188 -2.423 -10.651 18.545 C.3 33 NIL_33    0.000
514 C_112 -3.318 -9.853 17.586 C.3 33 NIL_33    0.000
515 H_1121 -3.290 -10.305 16.591 H 33 NIL_33    0.000
516 H_1122 -4.352 -9.865 17.945 H 33 NIL_33    0.000
517 H_1881 -2.795 -11.672 18.654 H 33 NIL_33    0.000
518 H_1882 -2.435 -10.182 19.530 H 33 NIL_33    0.000
519 H_1883 -1.388 -10.688 18.190 H 33 NIL_33    0.000
520 N 5.142 -3.472 18.984 N.am 34 NIL_34    0.000
521 C_133 6.006 -3.549 17.819 C.3 34 NIL_34    0.000
522 C_136 5.862 -2.764 20.060 C.3 34 NIL_34    0.000
523 C_134 7.447 -3.322 18.318 C.3 34 NIL_34    0.000
524 C_138 5.814 -4.830 17.048 C.2 34 NIL_34    0.000
525 C.fc 7.311 -2.454 19.586 C.3 34 NIL_34    0.000
526 O 6.689 -5.295 16.346 O.2 34 NIL_34    0.000
527 NH 7.489 -1.017 19.311 N.am 34 NIL_34    0.000
528 H.fc 8.037 -2.760 20.343 H 34 NIL_34    0.000
529 H_1341 8.065 -2.837 17.562 H 34 NIL_34    0.000
530 H_1342 7.895 -4.282 18.582 H 34 NIL_34    0.000
531 H_1361 5.892 -3.413 20.940 H 34 NIL_34    0.000
532 H_1362 5.336 -1.839 20.306 H 34 NIL_34    0.000
533 H_133 5.728 -2.732 17.148 H 34 NIL_34    0.000
534 HH 6.659 -0.551 18.977 H 34 NIL_34    0.000
535 C_737 -5.275 -3.666 19.716 C.3 35 NIL_35    0.000
536 C.fb -5.624 -5.079 19.169 C.3 35 NIL_35    0.000
537 N -5.414 -2.675 18.630 N.am 35 NIL_35    0.000
538 C_735 -6.269 -4.753 17.806 C.3 35 NIL_35    0.000
539 NH -4.431 -5.937 19.043 N.am 35 NIL_35    0.000
540 C_734 -5.694 -3.382 17.396 C.3 35 NIL_35    0.000
541 C_739 -6.578 -2.594 16.462 C.2 35 NIL_35    0.000
542 O -7.252 -3.134 15.608 O.2 35 NIL_35    0.000
543 H_734 -4.740 -3.530 16.880 H 35 NIL_35    0.000
544 H_7351 -6.070 -5.523 17.057 H 35 NIL_35    0.000
545 H_7352 -7.351 -4.662 17.936 H 35 NIL_35    0.000
546 H.fb -6.346 -5.576 19.821 H 35 NIL_35    0.000
547 H_7371 -5.970 -3.402 20.516 H 35 NIL_35    0.000
548 H_7372 -4.252 -3.651 20.100 H 35 NIL_35    0.000
549 HH -3.599 -5.460 18.732 H 35 NIL_35    0.000
550 C_2526 -5.750 -4.768 -4.857 C.3 36 NIL_36    0.000
551 C_2527 -6.073 -3.326 -5.312 C.3 36 NIL_36    0.000
552 C_3504 -7.016 -3.355 -6.531 C.3 36 NIL_36    0.000
553 H_35041 -7.198 -2.336 -6.881 H 36 NIL_36    0.000
554 H_35042 -7.967 -3.800 -6.239 H 36 NIL_36    0.000
555 H_35043 -6.594 -3.937 -7.354 H 36 NIL_36    0.000
556 H_25271 -5.226 -2.804 -5.598 H 36 NIL_36    0.000
557 H_25272 -6.464 -2.751 -4.529 H 36 NIL_36    0.000
558 H_25261 -6.669 -5.220 -4.480 H 36 NIL_36    0.000
559 H_25262 -5.378 -5.367 -5.695 H 36 NIL_36    0.000
560 C_2858 5.735 0.011 8.929 C.3 37 NIL_37    0.000
561 C_2854 6.753 0.467 7.866 C.2 37 NIL_37    0.000
562 NH 4.913 -1.055 8.291 N.am 37 NIL_37    0.000
563 C_2870 6.400 -0.202 10.421 C.3 37 NIL_37    0.000
564 O 7.705 1.137 8.210 O.2 37 NIL_37    0.000
565 C_2878 5.644 -0.026 11.868 C.3 37 NIL_37    0.000
566 NH 6.421 0.464 13.022 N.am 37 NIL_37    0.000
567 H_28781 4.830 0.690 11.720 H 37 NIL_37    0.000
568 H_28782 5.188 -0.980 12.143 H 37 NIL_37    0.000
569 H_28701 7.210 0.529 10.455 H 37 NIL_37    0.000
570 H_28702 6.896 -1.174 10.425 H 37 NIL_37    0.000
571 H_2858 5.067 0.871 9.021 H 37 NIL_37    0.000
572 HH 7.427 0.382 13.010 H 37 NIL_37    0.000
573 HH 4.304 -1.548 8.926 H 37 NIL_37    0.000
574 C_1478 -1.545 6.781 0.014 C.3 38 NIL_38    0.000
575 C_1479 -2.538 7.362 -1.005 C.3 38 NIL_38    0.000
576 C_3530 -3.424 8.422 -0.336 C.3 38 NIL_38    0.000
577 H_35301 -3.989 7.978 0.487 H 38 NIL_38    0.000
578 H_35302 -4.129 8.837 -1.059 H 38 NIL_38    0.000
579 H_35303 -2.806 9.232 0.057 H 38 NIL_38    0.000
580 H_14791 -3.163 6.565 -1.409 H 38 NIL_38    0.000
581 H_14792 -1.992 7.811 -1.836 H 38 NIL_38    0.000
582 H_14781 -0.899 6.058 -0.486 H 38 NIL_38    0.000
583 H_14782 -0.928 7.583 0.425 H 38 NIL_38    0.000
584 C_3010 5.886 -3.566 0.349 C.3 39 NIL_39    0.000
585 C_3011 7.027 -3.516 -0.679 C.3 39 NIL_39    0.000
586 C_3516 8.384 -3.637 0.028 C.3 39 NIL_39    0.000
587 H_35161 8.518 -2.816 0.736 H 39 NIL_39    0.000
588 H_35162 9.195 -3.601 -0.702 H 39 NIL_39    0.000
589 H_35163 8.444 -4.581 0.574 H 39 NIL_39    0.000
590 H_30111 6.984 -2.579 -1.237 H 39 NIL_39    0.000
591 H_30112 6.912 -4.335 -1.392 H 39 NIL_39    0.000
592 H_30101 4.926 -3.525 -0.166 H 39 NIL_39    0.000
593 H_30102 5.947 -4.508 0.900 H 39 NIL_39    0.000
594 C_1477 -5.182 6.102 -5.933 C.3 40 NIL_40    0.000
595 C_1476 -4.078 6.661 -5.024 C.3 40 NIL_40    0.000
596 C_3532 -4.737 4.809 -6.628 C.3 40 NIL_40    0.000
597 H_35321 -3.893 4.990 -7.205 H 40 NIL_40    0.000
598 H_35322 -5.523 4.448 -7.293 H 40 NIL_40    0.000
599 H_35323 -4.759 4.167 -5.976 H 40 NIL_40    0.000
600 H_14761 -3.206 6.912 -5.627 H 40 NIL_40    0.000
601 H_14762 -4.447 7.572 -4.543 H 40 NIL_40    0.000
602 H_14771 -5.444 6.852 -6.685 H 40 NIL_40    0.000
603 H_14772 -6.069 5.895 -5.330 H 40 NIL_40    0.000
604 C_1472 0.880 4.102 -9.999 C.3 41 NIL_41    0.000
605 C_1471 0.317 5.521 -9.844 C.3 41 NIL_41    0.000
606 C_3542 1.925 4.050 -11.120 C.3 41 NIL_41    0.000
607 H_35421 2.276 3.025 -11.256 H 41 NIL_41    0.000
608 H_35422 2.780 4.684 -10.873 H 41 NIL_41    0.000
609 H_35423 1.492 4.399 -12.060 H 41 NIL_41    0.000
610 H_14711 1.094 6.193 -9.473 H 41 NIL_41    0.000
611 H_14712 -0.036 5.882 -10.813 H 41 NIL_41    0.000
612 H_14721 0.285 3.316 -10.082 H 41 NIL_41    0.000
613 H_14722 1.319 3.773 -9.058 H 41 NIL_41    0.000
614 C_660 10.290 2.037 17.915 C.3 42 NIL_42    0.000
615 C_662 10.370 3.251 18.853 C.3 42 NIL_42    0.000
616 H_6621 9.785 4.081 18.452 H 42 NIL_42    0.000
617 H_6622 11.402 3.587 18.958 H 42 NIL_42    0.000
618 H_6623 9.985 2.992 19.840 H 42 NIL_42    0.000
619 H_6601 10.714 2.305 16.943 H 42 NIL_42    0.000
620 H_6602 10.866 1.205 18.332 H 42 NIL_42    0.000
621 C_3009 7.712 -0.037 -5.971 C.3 43 NIL_43    0.000
622 C_3008 7.685 -1.217 -4.990 C.3 43 NIL_43    0.000
623 C_3518 6.367 0.166 -6.623 C.3 43 NIL_43    0.000
624 H_35181 6.027 -0.055 -6.444 H 43 NIL_43    0.000
625 H_35182 6.359 -0.687 -7.237 H 43 NIL_43    0.000
626 H_35183 6.344 0.985 -7.315 H 43 NIL_43    0.000
627 H_30081 7.424 -2.134 -5.519 H 43 NIL_43    0.000
628 H_30082 8.674 -1.344 -4.541 H 43 NIL_43    0.000
629 H_30091 8.459 -0.219 -6.747 H 43 NIL_43    0.000
630 H_30092 7.992 0.876 -5.442 H 43 NIL_43    0.000
631 C_2299 -4.632 4.918 15.307 C.3 44 NIL_44    0.000
632 C_309 -3.728 4.489 14.169 C.2 44 NIL_44    0.000
633 O -2.956 3.571 14.253 O.2 44 NIL_44    0.000
634 H_22991 -4.265 5.812 15.584 H 44 NIL_44    0.000
635 H_22992 -5.622 5.037 14.883 H 44 NIL_44    0.000
636 C_769 -4.729 7.047 16.534 C.3 45 NIL_45    0.000
637 C_770 -5.236 7.154 15.079 C.3 45 NIL_45    0.000
638 H_7701 -5.701 6.269 14.759 H 45 NIL_45    0.000
639 H_7702 -4.406 7.372 14.403 H 45 NIL_45    0.000
640 H_7703 -5.975 7.948 15.002 H 45 NIL_45    0.000
641 H_7691 -3.987 6.246 16.696 H 45 NIL_45    0.000
642 H_7692 -4.215 7.957 16.814 H 45 NIL_45    0.000
@<TRIPOS>BOND
1 1 2 1 
2 2 4 2 
3 3 1 2 
4 5 3 1 
5 6 3 1 
6 7 4 1 
7 8 5 2 
8 8 4 1 
9 9 6 1 
10 10 7 2 
11 11 12 1 
12 11 13 2 
13 11 9 1 
14 12 14 1 
15 12 35 1 
16 15 12 1 
17 15 33 1 
18 15 34 1 
19 16 17 1 
20 16 14 1 
21 16 31 1 
22 16 32 1 
23 17 15 1 
24 17 18 1 
25 17 19 1 
26 18 20 1 
27 21 19 2 
28 22 20 1 
29 23 22 1 
30 24 23 1 
31 25 23 1 
32 26 23 1 
33 27 22 1 
34 28 22 1 
35 29 20 1 
36 30 20 1 
37 36 8 1 
38 37 6 1 
39 38 6 1 
40 39 5 1 
41 40 2 1 
42 41 1 1 
43 42 9 1 
44 43 44 1 
45 45 43 1 
46 46 48 1 
47 46 44 1 
48 46 50 1 
49 47 45 1 
50 48 51 1 
51 49 46 1 
52 49 52 1 
53 51 52 1 
54 51 54 1 
55 52 343 1 
56 53 50 2 
57 55 54 2 
58 56 57 1 
59 56 54 1 
60 58 59 2 
61 58 57 1 
62 59 61 1 
63 60 58 1 
64 60 62 2 
65 61 63 2 
66 62 63 1 
67 64 14 1 
68 64 63 1 
69 64 65 2 
70 66 62 1 
71 67 61 1 
72 68 60 1 
73 69 59 1 
74 70 57 1 
75 71 57 1 
76 72 51 1 
77 73 49 1 
78 74 49 1 
79 75 48 1 
80 76 48 1 
81 77 47 1 
82 78 47 1 
83 79 47 1 
84 80 45 1 
85 81 45 1 
86 82 43 1 
87 83 43 1 
88 84 56 1 
89 85 86 1 
90 85 550 1 
91 87 90 1 
92 87 86 1 
93 88 86 1 
94 89 86 1 
95 90 91 1 
96 90 93 1 
97 91 88 1 
98 92 89 2 
99 94 93 2 
100 95 90 1 
101 96 88 1 
102 97 88 1 
103 98 87 1 
104 99 87 1 
105 100 101 1 
106 100 112 1 
107 100 113 1 
108 101 103 1 
109 101 111 1 
110 102 100 1 
111 102 110 1 
112 103 401 1 
113 104 101 1 
114 104 107 2 
115 104 400 1 
116 105 102 1 
117 105 103 1 
118 105 108 1 
119 105 109 1 
120 106 102 1 
121 106 133 1 
122 106 114 1 
123 116 115 1 
124 117 116 1 
125 118 117 1 
126 119 117 1 
127 120 117 1 
128 121 116 1 
129 122 116 1 
130 123 115 1 
131 124 115 1 
132 125 126 1 
133 125 127 1 
134 125 138 1 
135 125 139 1 
136 126 128 1 
137 126 129 1 
138 126 130 1 
139 128 131 1 
140 128 136 1 
141 128 137 1 
142 129 190 1 
143 130 183 1 
144 131 127 1 
145 131 133 1 
146 131 135 1 
147 132 130 2 
148 134 133 2 
149 140 249 1 
150 141 143 1 
151 141 140 1 
152 141 145 1 
153 142 140 2 
154 143 146 1 
155 144 141 1 
156 144 147 1 
157 145 250 1 
158 146 147 1 
159 146 148 1 
160 147 286 1 
161 148 282 1 
162 148 149 2 
163 150 146 1 
164 151 144 1 
165 152 144 1 
166 153 143 1 
167 154 143 1 
168 156 155 1 
169 157 160 1 
170 157 155 1 
171 158 156 1 
172 159 156 1 
173 159 161 2 
174 160 158 1 
175 160 163 1 
176 162 160 1 
177 162 164 1 
178 165 163 2 
179 166 158 1 
180 167 158 1 
181 168 157 1 
182 169 157 1 
183 170 156 1 
184 171 172 1 
185 172 173 1 
186 174 173 1 
187 175 173 1 
188 176 172 1 
189 177 172 1 
190 178 171 1 
191 179 171 1 
192 180 171 1 
193 181 182 1 
194 181 183 1 
195 182 184 1 
196 182 186 1 
197 184 187 1 
198 185 182 1 
199 185 188 1 
200 187 183 1 
201 189 186 2 
202 190 187 1 
203 190 191 2 
204 192 187 1 
205 193 184 1 
206 194 184 1 
207 195 181 1 
208 196 181 1 
209 197 274 1 
210 197 198 1 
211 197 200 1 
212 197 201 1 
213 198 199 2 
214 198 566 1 
215 202 203 1 
216 204 202 1 
217 205 202 1 
218 206 202 1 
219 206 173 1 
220 207 208 1 
221 207 203 1 
222 207 210 1 
223 208 204 1 
224 208 89 1 
225 209 205 2 
226 210 85 1 
227 210 211 2 
228 212 207 1 
229 213 204 1 
230 214 204 1 
231 215 203 1 
232 216 203 1 
233 218 217 1 
234 219 218 1 
235 220 219 1 
236 221 219 1 
237 222 219 1 
238 223 218 1 
239 224 218 1 
240 225 217 1 
241 226 217 1 
242 227 228 1 
243 227 229 1 
244 228 230 1 
245 230 233 1 
246 231 228 1 
247 231 159 1 
248 232 228 1 
249 232 155 1 
250 233 229 1 
251 234 232 2 
252 235 233 1 
253 236 235 2 
254 237 233 1 
255 238 230 1 
256 239 230 1 
257 240 227 1 
258 241 227 1 
259 243 245 1 
260 243 242 1 
261 244 242 2 
262 245 248 1 
263 246 243 1 
264 246 249 1 
265 247 243 1 
266 247 561 1 
267 248 249 1 
268 250 248 1 
269 250 251 2 
270 252 248 1 
271 253 246 1 
272 254 246 1 
273 255 245 1 
274 256 245 1 
275 258 259 1 
276 258 257 1 
277 259 312 1 
278 260 259 1 
279 261 259 1 
280 262 258 1 
281 263 258 1 
282 264 257 1 
283 265 257 1 
284 266 257 1 
285 267 527 1 
286 268 270 1 
287 268 267 1 
288 268 281 1 
289 269 267 2 
290 270 614 1 
291 271 268 1 
292 271 279 1 
293 271 280 1 
294 272 273 1 
295 272 270 1 
296 272 277 1 
297 272 278 1 
298 273 271 1 
299 273 274 1 
300 273 275 1 
301 274 394 1 
302 275 396 1 
303 276 275 2 
304 282 283 1 
305 282 622 1 
306 283 284 1 
307 284 287 1 
308 285 283 1 
309 285 288 1 
310 286 283 1 
311 287 288 1 
312 287 290 1 
313 288 307 1 
314 289 286 2 
315 290 312 1 
316 291 290 2 
317 292 287 1 
318 293 285 1 
319 294 285 1 
320 295 284 1 
321 296 284 1 
322 297 305 1 
323 297 306 1 
324 298 297 1 
325 298 299 1 
326 298 303 1 
327 298 304 1 
328 300 299 1 
329 301 299 1 
330 302 299 1 
331 308 310 1 
332 308 312 1 
333 308 307 1 
334 309 307 2 
335 310 313 1 
336 311 308 1 
337 311 314 1 
338 313 314 1 
339 314 50 1 
340 315 313 1 
341 315 316 2 
342 315 44 1 
343 317 313 1 
344 318 311 1 
345 319 311 1 
346 320 310 1 
347 321 310 1 
348 322 325 1 
349 323 326 1 
350 323 322 1 
351 323 362 1 
352 324 322 2 
353 325 328 1 
354 326 7 1 
355 327 323 1 
356 327 360 1 
357 327 361 1 
358 328 331 1 
359 329 330 1 
360 329 326 1 
361 329 356 1 
362 329 357 1 
363 330 327 1 
364 330 332 1 
365 330 333 1 
366 331 334 2 
367 332 336 1 
368 334 338 1 
369 335 331 1 
370 337 333 2 
371 339 335 2 
372 340 336 1 
373 341 343 1 
374 341 338 2 
375 341 339 1 
376 342 340 1 
377 344 343 2 
378 345 342 1 
379 346 342 1 
380 347 342 1 
381 348 340 1 
382 349 340 1 
383 350 339 1 
384 351 338 1 
385 352 336 1 
386 353 336 1 
387 354 335 1 
388 355 334 1 
389 358 328 1 
390 359 328 1 
391 363 325 1 
392 364 366 1 
393 364 374 1 
394 364 375 1 
395 365 364 1 
396 365 632 1 
397 365 377 1 
398 366 367 1 
399 366 372 1 
400 366 373 1 
401 367 371 1 
402 368 430 1 
403 368 367 1 
404 368 370 2 
405 369 367 1 
406 369 376 1 
407 378 19 1 
408 379 378 1 
409 379 382 1 
410 379 392 1 
411 380 383 1 
412 380 378 1 
413 380 390 1 
414 380 391 1 
415 381 379 1 
416 381 388 1 
417 381 389 1 
418 382 18 1 
419 383 381 1 
420 383 386 1 
421 384 382 2 
422 385 383 1 
423 385 217 1 
424 385 93 1 
425 386 91 1 
426 387 386 2 
427 393 394 2 
428 395 396 1 
429 395 394 1 
430 396 398 1 
431 397 395 1 
432 399 397 1 
433 399 398 1 
434 399 400 1 
435 399 401 1 
436 402 400 1 
437 403 401 2 
438 404 398 1 
439 405 398 1 
440 406 397 1 
441 407 397 1 
442 408 395 1 
443 410 460 1 
444 410 409 1 
445 410 413 2 
446 411 409 1 
447 412 409 1 
448 414 412 1 
449 415 414 1 
450 416 414 1 
451 417 414 1 
452 418 412 1 
453 419 412 1 
454 420 409 1 
455 421 415 1 
456 422 411 1 
457 424 423 1 
458 424 437 1 
459 425 428 1 
460 425 423 1 
461 425 435 1 
462 425 436 1 
463 426 424 1 
464 426 433 1 
465 426 434 1 
466 427 424 1 
467 427 429 2 
468 427 506 1 
469 428 426 1 
470 430 428 1 
471 430 297 1 
472 431 428 1 
473 431 432 2 
474 431 369 1 
475 438 333 1 
476 439 438 1 
477 439 442 1 
478 439 452 1 
479 440 443 1 
480 440 438 1 
481 440 450 1 
482 440 451 1 
483 441 439 1 
484 441 448 1 
485 441 449 1 
486 442 332 1 
487 443 441 1 
488 443 446 1 
489 444 442 2 
490 445 443 1 
491 447 446 2 
492 453 205 1 
493 454 453 1 
494 454 467 1 
495 455 458 1 
496 455 453 1 
497 455 465 1 
498 455 466 1 
499 456 454 1 
500 456 463 1 
501 456 464 1 
502 457 454 1 
503 457 459 2 
504 457 206 1 
505 458 456 1 
506 458 460 1 
507 458 461 1 
508 460 115 1 
509 461 411 1 
510 462 461 2 
511 468 469 1 
512 469 470 1 
513 470 247 1 
514 471 470 1 
515 472 470 1 
516 473 469 1 
517 474 469 1 
518 475 468 1 
519 476 468 1 
520 477 468 1 
521 478 479 1 
522 478 491 1 
523 478 492 1 
524 479 481 1 
525 480 484 1 
526 480 478 1 
527 480 446 1 
528 481 484 1 
529 481 489 1 
530 481 490 1 
531 482 479 1 
532 482 595 1 
533 483 479 1 
534 483 498 1 
535 484 488 1 
536 485 483 2 
537 486 484 1 
538 486 445 1 
539 487 486 2 
540 493 231 1 
541 493 496 1 
542 493 497 1 
543 494 493 1 
544 494 495 2 
545 494 415 1 
546 499 498 1 
547 499 512 1 
548 500 503 1 
549 500 498 1 
550 500 510 1 
551 500 511 1 
552 501 499 1 
553 501 508 1 
554 501 509 1 
555 502 482 1 
556 502 499 1 
557 502 504 2 
558 503 501 1 
559 503 506 1 
560 505 503 1 
561 505 423 1 
562 507 505 2 
563 513 514 1 
564 513 517 1 
565 513 518 1 
566 513 519 1 
567 514 229 1 
568 514 515 1 
569 514 516 1 
570 520 163 1 
571 521 520 1 
572 521 533 1 
573 522 525 1 
574 522 520 1 
575 522 531 1 
576 522 532 1 
577 523 521 1 
578 523 529 1 
579 523 530 1 
580 524 521 1 
581 524 162 1 
582 525 523 1 
583 525 528 1 
584 526 524 2 
585 527 525 1 
586 527 534 1 
587 535 536 1 
588 535 537 1 
589 535 547 1 
590 535 548 1 
591 536 538 1 
592 536 546 1 
593 537 186 1 
594 538 540 1 
595 538 544 1 
596 538 545 1 
597 539 536 1 
598 539 235 1 
599 539 549 1 
600 540 537 1 
601 540 543 1 
602 541 540 1 
603 541 542 2 
604 541 185 1 
605 550 551 1 
606 552 551 1 
607 553 552 1 
608 554 552 1 
609 555 552 1 
610 556 551 1 
611 557 551 1 
612 558 550 1 
613 559 550 1 
614 560 561 1 
615 560 563 1 
616 561 564 2 
617 562 560 1 
618 562 242 1 
619 565 563 1 
620 566 565 1 
621 567 565 1 
622 568 565 1 
623 569 563 1 
624 570 563 1 
625 571 560 1 
626 572 566 1 
627 573 562 1 
628 574 506 1 
629 574 582 1 
630 574 583 1 
631 575 574 1 
632 575 576 1 
633 575 580 1 
634 575 581 1 
635 577 576 1 
636 578 576 1 
637 579 576 1 
638 584 145 1 
639 585 584 1 
640 585 586 1 
641 587 586 1 
642 588 586 1 
643 589 586 1 
644 590 585 1 
645 591 585 1 
646 592 584 1 
647 593 584 1 
648 594 595 1 
649 594 596 1 
650 594 602 1 
651 594 603 1 
652 595 600 1 
653 595 601 1 
654 597 596 1 
655 598 596 1 
656 599 596 1 
657 604 605 1 
658 604 606 1 
659 604 612 1 
660 604 613 1 
661 605 445 1 
662 605 610 1 
663 605 611 1 
664 607 606 1 
665 608 606 1 
666 609 606 1 
667 614 619 1 
668 614 620 1 
669 615 614 1 
670 615 616 1 
671 615 617 1 
672 615 618 1 
673 621 622 1 
674 621 623 1 
675 624 623 1 
676 625 623 1 
677 626 623 1 
678 627 622 1 
679 628 622 1 
680 629 621 1 
681 630 621 1 
682 631 129 1 
683 631 634 1 
684 631 635 1 
685 632 631 1 
686 632 633 2 
687 636 127 1 
688 636 641 1 
689 636 642 1 
690 637 636 1 
691 637 638 1 
692 637 639 1 
693 637 640 1 
@<TRIPOS>SUBSTRUCTURE
1 NIL_1 1 RESIDUE 1 A NIL 1
2 NIL_2 43 RESIDUE 1 A NIL 1
3 NIL_3 85 RESIDUE 1 A NIL 1
4 NIL_4 100 RESIDUE 1 A NIL 1
5 NIL_5 115 RESIDUE 1 A NIL 1
6 NIL_6 125 RESIDUE 1 A NIL 1
7 NIL_7 140 RESIDUE 1 A NIL 1
8 NIL_8 155 RESIDUE 1 A NIL 1
9 NIL_9 171 RESIDUE 1 A NIL 1
10 NIL_10 181 RESIDUE 1 A NIL 1
11 NIL_11 197 RESIDUE 1 A NIL 1
12 NIL_12 202 RESIDUE 1 A NIL 1
13 NIL_13 217 RESIDUE 1 A NIL 1
14 NIL_14 227 RESIDUE 1 A NIL 1
15 NIL_15 242 RESIDUE 1 A NIL 1
16 NIL_16 257 RESIDUE 1 A NIL 1
17 NIL_17 267 RESIDUE 1 A NIL 1
18 NIL_18 282 RESIDUE 1 A NIL 1
19 NIL_19 297 RESIDUE 1 A NIL 1
20 NIL_20 307 RESIDUE 1 A NIL 1
21 NIL_21 322 RESIDUE 1 A NIL 1
22 NIL_22 364 RESIDUE 1 A NIL 1
23 NIL_23 378 RESIDUE 1 A NIL 1
24 NIL_24 393 RESIDUE 1 A NIL 1
25 NIL_25 409 RESIDUE 1 A NIL 1
26 NIL_26 423 RESIDUE 1 A NIL 1
27 NIL_27 438 RESIDUE 1 A NIL 1
28 NIL_28 453 RESIDUE 1 A NIL 1
29 NIL_29 468 RESIDUE 1 A NIL 1
30 NIL_30 478 RESIDUE 1 A NIL 1
31 NIL_31 493 RESIDUE 1 A NIL 1
32 NIL_32 498 RESIDUE 1 A NIL 1
33 NIL_33 513 RESIDUE 1 A NIL 1
34 NIL_34 520 RESIDUE 1 A NIL 1
35 NIL_35 535 RESIDUE 1 A NIL 1
36 NIL_36 550 RESIDUE 1 A NIL 1
37 NIL_37 560 RESIDUE 1 A NIL 1
38 NIL_38 574 RESIDUE 1 A NIL 1
39 NIL_39 584 RESIDUE 1 A NIL 1
40 NIL_40 594 RESIDUE 1 A NIL 1
41 NIL_41 604 RESIDUE 1 A NIL 1
42 NIL_42 614 RESIDUE 1 A NIL 1
43 NIL_43 621 RESIDUE 1 A NIL 1
44 NIL_44 631 RESIDUE 1 A NIL 1
45 NIL_45 636 RESIDUE 1 A NIL 1
