@<TRIPOS>MOLECULE
NIL
7704 8316 540 0 0
POLYMER
CHARGES


@<TRIPOS>ATOM
1 C1FY 38.01 29.402 14.469 c3 1 NIL_1    0.092
2 C1FZ 38.419 30.019 13.147 c 1 NIL_1    0.510
3 O0BZ 38.380 31.215 12.923 o 1 NIL_1   -0.557
4 H1TY 37.114 28.806 14.274 h1 1 NIL_1    0.057
5 H1TZ 38.791 28.705 14.781 h1 1 NIL_1    0.057
6 C1EP 41.767 26.952 -5.079 c3 2 NIL_2   -0.040
7 C1EQ 40.843 26.239 -4.066 c3 2 NIL_2    0.015
8 C1ER 42.699 25.942 -5.774 c3 2 NIL_2   -0.064
9 H1RJ 43.302 25.399 -5.041 hc 2 NIL_2    0.023
10 H1RK 43.377 26.459 -6.456 hc 2 NIL_2    0.023
11 H1RL 42.119 25.218 -6.350 hc 2 NIL_2    0.023
12 H1RM 40.255 25.481 -4.577 h1 2 NIL_2    0.047
13 H1RN 41.487 25.662 -3.395 h1 2 NIL_2    0.047
14 H1RO 42.369 27.702 -4.561 hc 2 NIL_2    0.028
15 H1RP 41.185 27.461 -5.847 hc 2 NIL_2    0.028
16 C1BE 38.106 28.260 -7.434 c 3 NIL_3    0.510
17 C1BF 37.722 27.266 -8.542 c3 3 NIL_3    0.131
18 O0AY 38.306 29.444 -7.635 o 3 NIL_3   -0.544
19 C1BG 39.077 26.882 -9.206 c3 3 NIL_3    0.007
20 C1BH 36.967 28.009 -9.689 c3 3 NIL_3    0.046
21 N0BJ 36.997 26.041 -8.027 n 3 NIL_3   -0.284
22 C1BI 39.058 27.550 -10.589 c3 3 NIL_3    0.105
23 N0BK 37.651 27.625 -10.925 n 3 NIL_3   -0.285
24 C1BJ 39.956 26.855 -11.585 c 3 NIL_3    0.510
25 O0AZ 41.123 26.664 -11.299 o 3 NIL_3   -0.549
26 H1NU 39.426 28.577 -10.501 h1 3 NIL_3    0.061
27 H1NV 35.897 27.803 -9.711 h1 3 NIL_3    0.050
28 H1NW 37.067 29.094 -9.605 h1 3 NIL_3    0.050
29 H1NX 39.176 25.802 -9.303 hc 3 NIL_3    0.032
30 H1NY 39.944 27.222 -8.634 hc 3 NIL_3    0.032
31 C1B8 35.629 34.232 17.276 c3 4 NIL_4    0.129
32 C1B9 35.341 33.124 16.246 c3 4 NIL_4    0.006
33 C1BA 37.108 33.959 17.652 c3 4 NIL_4    0.045
34 N0BH 35.481 35.562 16.653 n 4 NIL_4   -0.298
35 C1BB 34.688 34.029 18.468 c 4 NIL_4    0.510
36 C1BC 36.232 31.961 16.696 c3 4 NIL_4    0.105
37 N0BI 37.432 32.586 17.234 n 4 NIL_4   -0.285
38 H1NO 36.292 35.942 16.188 hn 4 NIL_4    0.151
39 O0AW 34.933 33.268 19.386 o 4 NIL_4   -0.545
40 C1BD 36.480 30.938 15.613 c 4 NIL_4    0.510
41 O0AX 35.586 30.619 14.852 o 4 NIL_4   -0.549
42 H1NP 35.747 31.427 17.518 h1 4 NIL_4    0.061
43 H1NQ 37.766 34.644 17.109 h1 4 NIL_4    0.050
44 H1NR 37.279 34.078 18.725 h1 4 NIL_4    0.050
45 H1NS 35.648 33.451 15.248 hc 4 NIL_4    0.032
46 H1NT 34.285 32.845 16.207 hc 4 NIL_4    0.032
47 C1BK 28.595 36.800 6.444 c3 5 NIL_5   -0.064
48 C1BL 29.857 36.436 5.641 c3 5 NIL_5   -0.040
49 C1BM 30.799 35.466 6.393 c3 5 NIL_5    0.015
50 H1NZ 31.696 35.337 5.793 h1 5 NIL_5    0.047
51 H1O0 31.150 35.985 7.289 h1 5 NIL_5    0.047
52 H1O1 29.580 36.031 4.668 hc 5 NIL_5    0.028
53 H1O2 30.411 37.355 5.438 hc 5 NIL_5    0.028
54 H1O3 27.982 35.916 6.629 hc 5 NIL_5    0.023
55 H1O4 27.996 37.525 5.890 hc 5 NIL_5    0.023
56 H1O5 28.864 37.249 7.404 hc 5 NIL_5    0.023
57 C19L 36.446 25.443 -16.369 c 6 NIL_6    0.510
58 C19M 37.594 25.960 -15.513 c3 6 NIL_6    0.105
59 O0AI 35.521 26.147 -16.727 o 6 NIL_6   -0.553
60 N0B3 36.538 24.128 -16.683 n 6 NIL_6   -0.310
61 N0B4 37.806 27.424 -15.566 n 6 NIL_6   -0.283
62 C19N 37.372 25.577 -14.032 c3 6 NIL_6    0.007
63 C19O 35.684 23.405 -17.637 c3 6 NIL_6    0.036
64 C19P 37.943 27.913 -14.191 c3 6 NIL_6    0.046
65 C19Q 38.005 26.728 -13.202 c3 6 NIL_6    0.131
66 C19R 34.187 23.589 -17.471 c2 6 NIL_6   -0.031
67 N0B5 39.434 26.463 -12.782 n 6 NIL_6   -0.284
68 C19S 37.075 27.147 -12.049 c 6 NIL_6    0.510
69 C19T 33.502 22.923 -16.538 c2 6 NIL_6   -0.057
70 C19U 33.527 24.443 -18.254 c2 6 NIL_6   -0.057
71 C19V 40.328 25.747 -13.742 c3 6 NIL_6    0.015
72 O0AJ 35.861 27.111 -12.136 o 6 NIL_6   -0.544
73 C19W 32.195 23.136 -16.366 c2 6 NIL_6   -0.049
74 C19X 32.224 24.660 -18.082 c2 6 NIL_6   -0.049
75 C19Y 41.177 26.675 -14.642 c3 6 NIL_6   -0.040
76 C19Z 31.535 24.030 -17.120 c2 6 NIL_6    0.037
77 C1A0 41.968 25.857 -15.683 c3 6 NIL_6   -0.064
78 C1A1 30.171 24.415 -16.906 c 6 NIL_6    0.510
79 O0AK 29.539 24.750 -17.892 o 6 NIL_6   -0.535
80 H1LY 42.624 25.134 -15.192 hc 6 NIL_6    0.023
81 H1LZ 42.585 26.516 -16.298 hc 6 NIL_6    0.023
82 H1M0 41.289 25.313 -16.344 hc 6 NIL_6    0.023
83 H1M1 41.877 27.247 -14.028 hc 6 NIL_6    0.028
84 H1M2 40.547 27.391 -15.171 hc 6 NIL_6    0.028
85 H1M3 31.747 25.405 -18.715 ha 6 NIL_6    0.063
86 H1M4 31.690 22.556 -15.605 ha 6 NIL_6    0.063
87 H1M5 39.778 25.056 -14.372 h1 6 NIL_6    0.047
88 H1M6 41.015 25.117 -13.167 h1 6 NIL_6    0.047
89 H1M7 34.058 25.002 -19.020 ha 6 NIL_6    0.063
90 H1M8 34.015 22.214 -15.890 ha 6 NIL_6    0.063
91 H1M9 37.068 28.533 -13.976 h1 6 NIL_6    0.050
92 H1MA 38.849 28.518 -14.096 h1 6 NIL_6    0.050
93 H1MB 35.926 22.343 -17.554 h1 6 NIL_6    0.052
94 H1MC 35.978 23.723 -18.639 h1 6 NIL_6    0.052
95 H1MD 36.297 25.501 -13.856 hc 6 NIL_6    0.032
96 H1ME 37.784 24.596 -13.783 hc 6 NIL_6    0.032
97 H1MF 38.503 25.485 -15.887 h1 6 NIL_6    0.061
98 H1MG 37.326 23.615 -16.317 hn 6 NIL_6    0.150
99 C1F2 32.188 36.140 -4.000 c3 7 NIL_7    0.015
100 C1F3 31.223 36.669 -5.085 c3 7 NIL_7   -0.040
101 C1F4 31.879 37.800 -5.895 c3 7 NIL_7   -0.064
102 H1S2 31.172 38.196 -6.628 hc 7 NIL_7    0.023
103 H1S3 32.757 37.428 -6.428 hc 7 NIL_7    0.023
104 H1S4 32.189 38.618 -5.240 hc 7 NIL_7    0.023
105 H1S5 30.310 37.042 -4.613 hc 7 NIL_7    0.028
106 H1S6 30.933 35.874 -5.772 hc 7 NIL_7    0.028
107 H1S7 33.133 35.845 -4.449 h1 7 NIL_7    0.047
108 H1S8 32.453 36.982 -3.352 h1 7 NIL_7    0.047
109 C19I 33.269 25.443 -2.268 c3 8 NIL_8   -0.064
110 C19J 32.131 25.269 -1.244 c3 8 NIL_8   -0.040
111 C19K 32.512 24.248 -0.149 c3 8 NIL_8    0.015
112 H1LR 32.786 23.298 -0.603 h1 8 NIL_8    0.047
113 H1LS 33.441 24.606 0.300 h1 8 NIL_8    0.047
114 H1LT 31.887 26.231 -0.790 hc 8 NIL_8    0.028
115 H1LU 31.244 24.943 -1.777 hc 8 NIL_8    0.028
116 H1LV 34.174 25.823 -1.793 hc 8 NIL_8    0.023
117 H1LW 32.972 26.150 -3.046 hc 8 NIL_8    0.023
118 H1LX 33.507 24.489 -2.742 hc 8 NIL_8    0.023
119 C1DG 32.601 34.911 19.561 c3 9 NIL_9    0.034
120 C1DH 31.473 35.838 19.068 c3 9 NIL_9    0.040
121 N0C4 33.558 34.774 18.457 n 9 NIL_9   -0.286
122 C1DI 32.173 36.662 17.976 c3 9 NIL_9   -0.005
123 N0C5 30.366 35.055 18.504 n 9 NIL_9   -0.310
124 C1DJ 33.152 35.652 17.358 c3 9 NIL_9    0.104
125 C1DK 34.323 36.256 16.606 c 9 NIL_9    0.510
126 O0BI 34.250 37.309 16.005 o 9 NIL_9   -0.552
127 H1Q0 32.614 35.033 16.634 h1 9 NIL_9    0.061
128 H1Q1 31.476 37.068 17.238 hc 9 NIL_9    0.031
129 H1Q2 32.724 37.487 18.436 hc 9 NIL_9    0.031
130 H1Q3 31.107 36.475 19.879 h1 9 NIL_9    0.052
131 H1Q4 33.115 35.376 20.407 h1 9 NIL_9    0.049
132 H1Q5 32.214 33.933 19.861 h1 9 NIL_9    0.049
133 H1Q6 30.601 34.149 18.127 hn 9 NIL_9    0.150
134 C1BN 31.798 32.895 5.203 c3 10 NIL_10    0.007
135 C1BO 31.674 33.541 3.810 c3 10 NIL_10    0.105
136 C1BP 30.375 33.001 5.825 c3 10 NIL_10    0.131
137 N0BL 30.311 33.275 3.387 n 10 NIL_10   -0.285
138 C1BQ 32.749 33.113 2.837 c 10 NIL_10    0.510
139 C1BR 29.454 33.184 4.581 c3 10 NIL_10    0.046
140 N0BM 30.244 34.139 6.808 n 10 NIL_10   -0.284
141 C1BS 30.010 31.626 6.404 c 10 NIL_10    0.510
142 O0B0 33.896 32.983 3.223 o 10 NIL_10   -0.549
143 O0B1 30.033 30.608 5.737 o 10 NIL_10   -0.547
144 H1O6 28.774 32.335 4.458 h1 10 NIL_10    0.050
145 H1O7 28.836 34.077 4.673 h1 10 NIL_10    0.050
146 H1O8 31.774 34.625 3.885 h1 10 NIL_10    0.061
147 H1O9 32.092 31.851 5.068 hc 10 NIL_10    0.032
148 H1OA 32.571 33.364 5.816 hc 10 NIL_10    0.032
149 C1CB 42.499 29.661 16.418 c3 11 NIL_11   -0.004
150 C1CC 42.374 28.344 15.619 c3 11 NIL_11   -0.052
151 H1OQ 43.368 27.980 15.355 hc 11 NIL_11    0.024
152 H1OR 41.818 28.491 14.691 hc 11 NIL_11    0.024
153 H1OS 41.877 27.565 16.197 hc 11 NIL_11    0.024
154 H1OT 43.172 29.516 17.264 h1 11 NIL_11    0.043
155 H1OU 42.961 30.410 15.770 h1 11 NIL_11    0.043
156 C1AW 30.883 21.943 5.917 c 12 NIL_12    0.510
157 C1AX 30.185 23.209 5.412 c3 12 NIL_12    0.131
158 O0AS 31.485 21.193 5.172 o 12 NIL_12   -0.547
159 C1AY 31.249 24.078 4.671 c3 12 NIL_12    0.007
160 C1AZ 29.238 22.731 4.274 c3 12 NIL_12    0.046
161 N0BD 29.469 23.987 6.479 n 12 NIL_12   -0.284
162 C1B0 30.695 24.277 3.247 c3 12 NIL_12    0.105
163 N0BE 29.849 23.128 3.001 n 12 NIL_12   -0.285
164 C1B1 31.739 24.530 2.183 c 12 NIL_12    0.510
165 O0AT 32.756 25.134 2.464 o 12 NIL_12   -0.549
166 H1NE 30.047 25.155 3.221 h1 12 NIL_12    0.061
167 H1NF 29.089 21.647 4.299 h1 12 NIL_12    0.050
168 H1NG 28.261 23.210 4.344 h1 12 NIL_12    0.050
169 H1NH 32.211 23.562 4.615 hc 12 NIL_12    0.032
170 H1NI 31.432 25.036 5.163 hc 12 NIL_12    0.032
171 C1F5 34.444 32.201 -9.030 c3 13 NIL_13    0.015
172 C1F6 35.038 33.300 -9.945 c3 13 NIL_13   -0.040
173 C1F7 35.841 34.351 -9.155 c3 13 NIL_13   -0.064
174 H1S9 36.314 35.056 -9.843 hc 13 NIL_13    0.023
175 H1SA 36.625 33.871 -8.565 hc 13 NIL_13    0.023
176 H1SB 35.194 34.914 -8.479 hc 13 NIL_13    0.023
177 H1SC 34.259 33.787 -10.532 hc 13 NIL_13    0.028
178 H1SD 35.704 32.823 -10.666 hc 13 NIL_13    0.028
179 H1SE 34.014 31.429 -9.663 h1 13 NIL_13    0.047
180 H1SF 35.283 31.712 -8.532 h1 13 NIL_13    0.047
181 C1DC 38.148 29.087 9.836 c3 14 NIL_14   -0.010
182 C1DD 38.589 29.395 8.383 c3 14 NIL_14    0.101
183 C1DE 39.243 29.442 10.865 c3 14 NIL_14    0.013
184 C1DF 39.513 28.334 7.797 c 14 NIL_14    0.510
185 N0C2 37.426 29.705 7.557 n 14 NIL_14   -0.302
186 N0C3 38.828 29.117 12.232 n 14 NIL_14   -0.314
187 O0BH 40.286 27.725 8.513 o 14 NIL_14   -0.550
188 H1PT 40.160 28.887 10.658 h1 14 NIL_14    0.047
189 H1PU 39.470 30.508 10.793 h1 14 NIL_14    0.047
190 H1PV 39.181 30.313 8.399 h1 14 NIL_14    0.061
191 H1PW 37.871 28.034 9.924 hc 14 NIL_14    0.031
192 H1PX 37.256 29.673 10.080 hc 14 NIL_14    0.031
193 H1PY 38.834 28.143 12.492 hn 14 NIL_14    0.149
194 H1PZ 36.709 30.264 7.993 hn 14 NIL_14    0.150
195 C1FP 34.345 29.080 0.858 c3 15 NIL_15   -0.064
196 C1FQ 34.416 27.546 0.778 c3 15 NIL_15   -0.040
197 C1FR 35.784 26.967 0.337 c3 15 NIL_15    0.015
198 H1TD 35.711 25.875 0.349 h1 15 NIL_15    0.047
199 H1TE 35.993 27.234 -0.698 h1 15 NIL_15    0.047
200 H1TF 34.161 27.147 1.760 hc 15 NIL_15    0.028
201 H1TG 33.647 27.207 0.090 hc 15 NIL_15    0.028
202 H1TH 34.411 29.522 -0.137 hc 15 NIL_15    0.023
203 H1TI 35.144 29.479 1.486 hc 15 NIL_15    0.023
204 H1TJ 33.390 29.382 1.295 hc 15 NIL_15    0.023
205 C1FJ 29.401 32.750 13.117 c 16 NIL_16    0.510
206 C1FK 28.095 32.203 13.661 c3 16 NIL_16    0.092
207 O0BY 30.302 33.156 13.826 o 16 NIL_16   -0.557
208 H1T1 27.303 32.923 13.459 h1 16 NIL_16    0.057
209 H1T2 27.854 31.320 13.062 h1 16 NIL_16    0.057
210 C1FB 26.738 25.454 17.666 c3 17 NIL_17    0.104
211 N0CM 27.282 26.063 18.881 n 17 NIL_17   -0.286
212 C1FC 26.221 24.072 18.088 c3 17 NIL_17   -0.005
213 C1FD 25.732 26.339 16.956 c 17 NIL_17    0.510
214 C1FE 27.477 25.019 19.898 c3 17 NIL_17    0.034
215 C1FF 27.195 23.668 19.208 c3 17 NIL_17    0.040
216 O0BX 24.827 25.901 16.275 o 17 NIL_17   -0.552
217 N0CN 28.448 23.110 18.681 n 17 NIL_17   -0.310
218 H1SN 26.743 22.953 19.900 h1 17 NIL_17    0.052
219 H1SO 26.755 25.179 20.704 h1 17 NIL_17    0.049
220 H1SP 28.493 25.058 20.304 h1 17 NIL_17    0.049
221 H1SQ 26.204 23.366 17.255 hc 17 NIL_17    0.031
222 H1SR 25.211 24.157 18.500 hc 17 NIL_17    0.031
223 H1SS 27.573 25.324 16.971 h1 17 NIL_17    0.061
224 H1ST 29.272 23.681 18.794 hn 17 NIL_17    0.150
225 H1QZ 36.538 22.474 16.851 hn 18 NIL_18    0.151
226 N0CG 36.867 23.275 17.369 n 18 NIL_18   -0.298
227 C1ED 35.938 23.859 18.361 c3 18 NIL_18    0.129
228 C1EE 35.024 24.894 17.666 c3 18 NIL_18    0.006
229 C1EF 34.946 22.770 18.827 c3 18 NIL_18    0.045
230 C1EG 36.673 24.532 19.524 c 18 NIL_18    0.510
231 C1EH 33.736 24.137 17.283 c3 18 NIL_18    0.105
232 N0CH 33.819 22.812 17.894 n 18 NIL_18   -0.285
233 O0BS 36.193 24.645 20.636 o 18 NIL_18   -0.545
234 C1EI 33.418 24.039 15.797 c 18 NIL_18    0.510
235 O0BT 33.853 24.844 14.995 o 18 NIL_18   -0.549
236 H1R0 32.889 24.662 17.732 h1 18 NIL_18    0.061
237 H1R1 35.417 21.782 18.827 h1 18 NIL_18    0.050
238 H1R2 34.558 22.986 19.825 h1 18 NIL_18    0.050
239 H1R3 35.519 25.366 16.815 hc 18 NIL_18    0.032
240 H1R4 34.756 25.690 18.366 hc 18 NIL_18    0.032
241 C1A2 30.005 31.962 -16.756 c2 19 NIL_19    0.037
242 C1A3 30.998 32.983 -16.607 c 19 NIL_19    0.510
243 C1A4 29.040 31.709 -15.857 c2 19 NIL_19   -0.049
244 C1A5 30.081 31.168 -17.834 c2 19 NIL_19   -0.049
245 O0AL 31.411 33.485 -17.639 o 19 NIL_19   -0.535
246 C1A6 28.199 30.685 -16.026 c2 19 NIL_19   -0.057
247 C1A7 29.245 30.145 -17.995 c2 19 NIL_19   -0.057
248 C1A8 28.301 29.884 -17.088 c2 19 NIL_19   -0.031
249 C1A9 27.379 28.695 -17.271 c3 19 NIL_19    0.036
250 N0B6 27.581 27.564 -16.356 n 19 NIL_19   -0.310
251 C1AA 28.759 26.941 -16.113 c 19 NIL_19    0.510
252 C1AB 28.617 25.631 -15.348 c3 19 NIL_19    0.105
253 O0AM 29.833 27.387 -16.472 o 19 NIL_19   -0.553
254 N0B7 29.590 24.567 -15.678 n 19 NIL_19   -0.283
255 C1AC 28.758 25.864 -13.832 c3 19 NIL_19    0.007
256 C1AD 29.879 23.832 -14.436 c3 19 NIL_19    0.046
257 C1AE 29.123 24.481 -13.243 c3 19 NIL_19    0.131
258 N0B8 27.851 23.816 -12.813 n 19 NIL_19   -0.284
259 C1AF 30.139 24.614 -12.094 c 19 NIL_19    0.510
260 C1AG 26.958 23.266 -13.863 c3 19 NIL_19    0.015
261 O0AN 31.211 25.170 -12.238 o 19 NIL_19   -0.544
262 C1AH 26.545 21.799 -13.605 c3 19 NIL_19   -0.040
263 C1AI 27.738 20.825 -13.611 c3 19 NIL_19   -0.064
264 H1MH 28.497 21.123 -12.885 hc 19 NIL_19    0.023
265 H1MI 28.197 20.785 -14.600 hc 19 NIL_19    0.023
266 H1MJ 27.398 19.821 -13.348 hc 19 NIL_19    0.023
267 H1MK 25.834 21.495 -14.375 hc 19 NIL_19    0.028
268 H1ML 26.025 21.724 -12.648 hc 19 NIL_19    0.028
269 H1MM 27.432 23.294 -14.842 h1 19 NIL_19    0.047
270 H1MN 26.062 23.892 -13.912 h1 19 NIL_19    0.047
271 H1MO 30.950 23.907 -14.251 h1 19 NIL_19    0.050
272 H1MP 29.609 22.778 -14.555 h1 19 NIL_19    0.050
273 H1MQ 29.561 26.584 -13.649 hc 19 NIL_19    0.032
274 H1MR 27.839 26.270 -13.403 hc 19 NIL_19    0.032
275 H1MS 27.619 25.245 -15.568 h1 19 NIL_19    0.061
276 H1MT 26.345 29.029 -17.161 h1 19 NIL_19    0.052
277 H1MU 27.481 28.308 -18.289 h1 19 NIL_19    0.052
278 H1MV 29.353 29.508 -18.869 ha 19 NIL_19    0.063
279 H1MW 27.431 30.496 -15.279 ha 19 NIL_19    0.063
280 H1MX 30.857 31.315 -18.582 ha 19 NIL_19    0.063
281 H1MY 28.900 32.329 -14.982 ha 19 NIL_19    0.063
282 H1MZ 26.741 27.142 -15.988 hn 19 NIL_19    0.150
283 C1FG 25.485 27.161 -4.974 c3 20 NIL_20   -0.064
284 C1FH 26.467 26.595 -3.931 c3 20 NIL_20   -0.040
285 C1FI 26.560 25.052 -4.024 c3 20 NIL_20    0.015
286 H1SU 25.598 24.628 -3.720 h1 20 NIL_20    0.047
287 H1SV 26.688 24.780 -5.071 h1 20 NIL_20    0.047
288 H1SW 27.445 27.050 -4.089 hc 20 NIL_20    0.028
289 H1SX 26.138 26.890 -2.932 hc 20 NIL_20    0.028
290 H1SY 24.485 26.742 -4.840 hc 20 NIL_20    0.023
291 H1SZ 25.822 26.934 -5.989 hc 20 NIL_20    0.023
292 H1T0 25.416 28.245 -4.872 hc 20 NIL_20    0.023
293 C1EM 27.299 25.271 6.077 c3 21 NIL_21   -0.040
294 C1EN 28.843 25.263 6.032 c3 21 NIL_21    0.015
295 C1EO 26.760 26.674 5.742 c3 21 NIL_21   -0.064
296 H1RC 27.084 26.986 4.746 hc 21 NIL_21    0.023
297 H1RD 27.121 27.407 6.468 hc 21 NIL_21    0.023
298 H1RE 25.668 26.679 5.767 hc 21 NIL_21    0.023
299 H1RF 29.135 25.511 5.014 h1 21 NIL_21    0.047
300 H1RG 29.221 26.068 6.670 h1 21 NIL_21    0.047
301 H1RH 26.948 24.984 7.071 hc 21 NIL_21    0.028
302 H1RI 26.891 24.552 5.364 hc 21 NIL_21    0.028
303 O0B2 39.580 32.600 17.808 o 22 NIL_22   -0.545
304 C1BT 38.663 32.030 17.246 c 22 NIL_22    0.510
305 C1BU 38.849 30.705 16.485 c3 22 NIL_22    0.128
306 C1BV 38.973 29.563 17.516 c3 22 NIL_22    0.003
307 C1BW 40.274 30.706 15.857 c3 22 NIL_22    0.029
308 N0BN 37.733 30.414 15.517 n 22 NIL_22   -0.275
309 C1BX 40.436 29.574 18.023 c3 22 NIL_22    0.090
310 N0BO 41.198 30.199 16.899 n3 22 NIL_22   -0.290
311 C1BY 40.896 28.247 18.640 c 22 NIL_22    0.510
312 O0B3 42.065 27.960 18.816 o 22 NIL_22   -0.557
313 H1OB 40.469 30.282 18.857 h1 22 NIL_22    0.057
314 H1OC 40.338 30.046 14.998 h1 22 NIL_22    0.046
315 H1OD 40.569 31.707 15.528 h1 22 NIL_22    0.046
316 H1OE 38.776 28.611 17.020 hc 22 NIL_22    0.032
317 H1OF 38.253 29.668 18.332 hc 22 NIL_22    0.032
318 C1FN 26.076 36.889 15.353 c3 23 NIL_23   -0.052
319 C1FO 27.270 36.410 16.205 c3 23 NIL_23   -0.004
320 H1T8 28.179 36.433 15.597 h1 23 NIL_23    0.043
321 H1T9 27.382 37.129 17.017 h1 23 NIL_23    0.043
322 H1TA 25.170 36.942 15.961 hc 23 NIL_23    0.024
323 H1TB 25.890 36.225 14.506 hc 23 NIL_23    0.024
324 H1TC 26.280 37.887 14.959 hc 23 NIL_23    0.024
325 O0B4 33.079 20.719 18.159 o 24 NIL_24   -0.545
326 C1BZ 32.997 21.786 17.579 c 24 NIL_24    0.510
327 C1C0 32.017 22.060 16.425 c3 24 NIL_24    0.128
328 C1C1 30.760 22.718 17.032 c3 24 NIL_24    0.003
329 C1C2 31.393 20.725 15.913 c3 24 NIL_24    0.029
330 N0BP 32.658 22.970 15.412 n 24 NIL_24   -0.275
331 C1C3 30.019 21.553 17.709 c3 24 NIL_24    0.090
332 N0BQ 30.202 20.437 16.757 n3 24 NIL_24   -0.290
333 C1C4 28.590 21.900 18.096 c 24 NIL_24    0.510
334 O0B5 27.650 21.153 17.902 o 24 NIL_24   -0.557
335 H1OG 30.539 21.319 18.643 h1 24 NIL_24    0.057
336 H1OH 31.020 20.826 14.893 h1 24 NIL_24    0.046
337 H1OI 32.126 19.914 15.937 h1 24 NIL_24    0.046
338 H1OJ 30.134 23.147 16.246 hc 24 NIL_24    0.032
339 H1OK 31.001 23.507 17.747 hc 24 NIL_24    0.032
340 N0CK 29.497 32.719 11.770 n 25 NIL_25   -0.314
341 C1EY 30.707 33.070 11.018 c3 25 NIL_25    0.013
342 C1EZ 30.809 32.303 9.681 c3 25 NIL_25   -0.010
343 C1F0 29.663 32.598 8.678 c3 25 NIL_25    0.101
344 C1F1 29.816 33.992 8.096 c 25 NIL_25    0.510
345 N0CL 29.623 31.532 7.687 n 25 NIL_25   -0.302
346 O0BW 29.573 34.957 8.798 o 25 NIL_25   -0.550
347 H1RV 28.703 32.581 9.202 h1 25 NIL_25    0.061
348 H1RW 31.768 32.533 9.209 hc 25 NIL_25    0.031
349 H1RX 30.823 31.233 9.911 hc 25 NIL_25    0.031
350 H1RY 31.581 32.814 11.622 h1 25 NIL_25    0.047
351 H1RZ 30.722 34.148 10.843 h1 25 NIL_25    0.047
352 H1S0 29.363 30.620 8.031 hn 25 NIL_25    0.150
353 H1S1 28.710 32.381 11.237 hn 25 NIL_25    0.149
354 C1E9 30.656 22.916 10.789 c3 26 NIL_26    0.013
355 N0CE 31.665 22.717 11.835 n 26 NIL_26   -0.314
356 C1EA 31.265 22.681 9.387 c3 26 NIL_26   -0.010
357 C1EB 30.206 22.428 8.282 c3 26 NIL_26    0.101
358 C1EC 29.534 23.711 7.815 c 26 NIL_26    0.510
359 N0CF 30.803 21.622 7.220 n 26 NIL_26   -0.302
360 O0BR 29.045 24.466 8.634 o 26 NIL_26   -0.550
361 H1QS 29.403 21.816 8.704 h1 26 NIL_26    0.061
362 H1QT 31.908 23.521 9.110 hc 26 NIL_26    0.031
363 H1QU 31.910 21.800 9.451 hc 26 NIL_26    0.031
364 H1QV 30.258 23.931 10.862 h1 26 NIL_26    0.047
365 H1QW 29.844 22.203 10.961 h1 26 NIL_26    0.047
366 H1QX 31.241 20.763 7.517 hn 26 NIL_26    0.150
367 H1QY 32.571 22.391 11.530 hn 26 NIL_26    0.149
368 O0B8 28.738 36.547 18.870 o 27 NIL_27   -0.557
369 C1CD 29.088 35.486 18.391 c 27 NIL_27    0.510
370 C1CE 28.114 34.528 17.699 c3 27 NIL_27    0.090
371 N0BT 27.075 35.038 16.754 n3 27 NIL_27   -0.290
372 C1CF 28.777 33.367 16.931 c3 27 NIL_27    0.003
373 C1CG 26.900 34.010 15.686 c3 27 NIL_27    0.029
374 C1CH 27.621 32.712 16.148 c3 27 NIL_27    0.128
375 N0BU 28.164 31.793 15.088 n 27 NIL_27   -0.275
376 C1CI 26.767 31.921 17.153 c 27 NIL_27    0.510
377 O0B9 25.774 32.372 17.692 o 27 NIL_27   -0.545
378 H1OV 27.391 34.400 14.792 h1 27 NIL_27    0.046
379 H1OW 25.844 33.836 15.465 h1 27 NIL_27    0.046
380 H1OX 29.522 33.764 16.237 hc 27 NIL_27    0.032
381 H1OY 29.274 32.667 17.607 hc 27 NIL_27    0.032
382 H1OZ 27.574 34.074 18.534 h1 27 NIL_27    0.057
383 C1E3 39.134 27.544 0.176 c3 28 NIL_28    0.007
384 C1E4 39.533 28.303 -1.098 c3 28 NIL_28    0.105
385 C1E5 37.920 28.333 0.747 c3 28 NIL_28    0.131
386 N0CC 38.255 28.706 -1.637 n 28 NIL_28   -0.285
387 C1E6 40.432 27.496 -2.002 c 28 NIL_28    0.510
388 C1E7 37.504 29.213 -0.484 c3 28 NIL_28    0.046
389 C1E8 38.468 29.219 1.876 c 28 NIL_28    0.510
390 N0CD 36.879 27.366 1.253 n 28 NIL_28   -0.284
391 O0BP 41.538 27.187 -1.599 o 28 NIL_28   -0.549
392 O0BQ 38.948 30.321 1.690 o 28 NIL_28   -0.544
393 H1QN 36.440 29.200 -0.686 h1 28 NIL_28    0.050
394 H1QO 37.780 30.261 -0.349 h1 28 NIL_28    0.050
395 H1QP 40.089 29.206 -0.830 h1 28 NIL_28    0.061
396 H1QQ 38.836 26.526 -0.091 hc 28 NIL_28    0.032
397 H1QR 39.969 27.481 0.880 hc 28 NIL_28    0.032
398 C1F8 34.194 33.447 -0.186 c3 29 NIL_29   -0.040
399 C1F9 33.419 32.367 0.593 c3 29 NIL_29    0.015
400 C1FA 35.338 32.807 -0.995 c3 29 NIL_29   -0.064
401 H1SG 35.869 33.567 -1.573 hc 29 NIL_29    0.023
402 H1SH 34.946 32.058 -1.688 hc 29 NIL_29    0.023
403 H1SI 36.055 32.321 -0.329 hc 29 NIL_29    0.023
404 H1SJ 33.009 31.656 -0.118 h1 29 NIL_29    0.047
405 H1SK 34.153 31.799 1.171 h1 29 NIL_29    0.047
406 H1SL 34.607 34.182 0.509 hc 29 NIL_29    0.028
407 H1SM 33.529 33.970 -0.873 hc 29 NIL_29    0.028
408 C1ES 30.579 32.231 -0.170 c3 30 NIL_30    0.046
409 C1ET 30.998 33.163 1.013 c3 30 NIL_30    0.131
410 N0CI 30.827 32.996 -1.396 n 30 NIL_30   -0.285
411 C1EU 30.939 34.575 0.361 c3 30 NIL_30    0.007
412 C1EV 29.909 33.147 2.102 c 30 NIL_30    0.510
413 N0CJ 32.386 32.880 1.543 n 30 NIL_30   -0.284
414 C1EW 30.447 34.357 -1.082 c3 30 NIL_30    0.105
415 O0BU 28.725 33.041 1.844 o 30 NIL_30   -0.544
416 C1EX 30.935 35.427 -2.026 c 30 NIL_30    0.510
417 O0BV 30.719 36.594 -1.754 o 30 NIL_30   -0.549
418 H1RQ 29.354 34.403 -1.105 h1 30 NIL_30    0.061
419 H1RR 31.925 35.044 0.359 hc 30 NIL_30    0.032
420 H1RS 30.265 35.256 0.887 hc 30 NIL_30    0.032
421 H1RT 31.088 31.267 -0.158 h1 30 NIL_30    0.050
422 H1RU 29.508 32.020 -0.149 h1 30 NIL_30    0.050
423 C1EJ 37.694 23.177 -9.057 c3 31 NIL_31   -0.064
424 C1EK 36.955 24.249 -9.881 c3 31 NIL_31   -0.040
425 C1EL 36.174 25.247 -8.992 c3 31 NIL_31    0.015
426 H1R5 35.581 25.888 -9.638 h1 31 NIL_31    0.047
427 H1R6 35.436 24.669 -8.430 h1 31 NIL_31    0.047
428 H1R7 37.659 24.771 -10.530 hc 31 NIL_31    0.028
429 H1R8 36.245 23.753 -10.545 hc 31 NIL_31    0.028
430 H1R9 38.154 22.444 -9.723 hc 31 NIL_31    0.023
431 H1RA 36.998 22.650 -8.400 hc 31 NIL_31    0.023
432 H1RB 38.479 23.623 -8.442 hc 31 NIL_31    0.023
433 C1DR 29.700 24.768 -8.570 c3 32 NIL_32    0.131
434 C1DS 28.358 24.997 -9.336 c3 32 NIL_32    0.007
435 C1DT 30.615 24.157 -9.677 c3 32 NIL_32    0.046
436 N0C8 30.263 26.026 -7.955 n 32 NIL_32   -0.284
437 C1DU 29.360 23.676 -7.543 c 32 NIL_32    0.510
438 C1DV 28.434 23.943 -10.452 c3 32 NIL_32    0.105
439 N0C9 29.808 24.061 -10.902 n 32 NIL_32   -0.285
440 O0BL 29.280 22.495 -7.830 o 32 NIL_32   -0.544
441 C1DW 27.388 23.980 -11.544 c 32 NIL_32    0.510
442 O0BM 26.204 24.048 -11.281 o 32 NIL_32   -0.549
443 H1QC 28.314 22.946 -10.019 h1 32 NIL_32    0.061
444 H1QD 31.501 24.752 -9.855 h1 32 NIL_32    0.050
445 H1QE 30.963 23.157 -9.408 h1 32 NIL_32    0.050
446 H1QF 28.301 25.996 -9.774 hc 32 NIL_32    0.032
447 H1QG 27.485 24.852 -8.694 hc 32 NIL_32    0.032
448 C1DL 38.835 29.366 4.354 c3 33 NIL_33    0.046
449 C1DM 38.334 28.531 5.565 c3 33 NIL_33    0.131
450 N0C6 38.397 28.703 3.124 n 33 NIL_33   -0.285
451 C1DN 37.601 27.316 4.917 c3 33 NIL_33    0.007
452 N0C7 39.458 28.084 6.458 n 33 NIL_33   -0.284
453 C1DO 37.270 29.389 6.261 c 33 NIL_33    0.510
454 C1DP 37.997 27.337 3.429 c3 33 NIL_33    0.105
455 O0BJ 36.287 29.806 5.677 o 33 NIL_33   -0.547
456 C1DQ 36.953 26.786 2.484 c 33 NIL_33    0.510
457 O0BK 36.208 25.888 2.831 o 33 NIL_33   -0.549
458 H1Q7 38.874 26.704 3.276 h1 33 NIL_33    0.061
459 H1Q8 36.516 27.415 5.002 hc 33 NIL_33    0.032
460 H1Q9 37.869 26.363 5.380 hc 33 NIL_33    0.032
461 H1QA 38.437 30.384 4.377 h1 33 NIL_33    0.050
462 H1QB 39.920 29.432 4.344 h1 33 NIL_33    0.050
463 C1D6 31.885 34.364 -8.981 c3 34 NIL_34    0.007
464 C1D7 31.107 34.183 -10.293 c3 34 NIL_34    0.105
465 C1D8 32.042 32.926 -8.404 c3 34 NIL_34    0.131
466 N0C0 31.524 32.883 -10.770 n 34 NIL_34   -0.285
467 C1D9 31.288 35.342 -11.235 c 34 NIL_34    0.510
468 C1DA 31.537 32.025 -9.580 c3 34 NIL_34    0.046
469 N0C1 33.474 32.666 -7.988 n 34 NIL_34   -0.284
470 C1DB 31.050 32.876 -7.231 c 34 NIL_34    0.510
471 O0BF 31.022 36.462 -10.839 o 34 NIL_34   -0.549
472 O0BG 29.865 32.630 -7.361 o 34 NIL_34   -0.544
473 H1PO 32.118 31.116 -9.721 h1 34 NIL_34    0.050
474 H1PP 30.505 31.703 -9.426 h1 34 NIL_34    0.050
475 H1PQ 30.036 34.126 -10.077 h1 34 NIL_34    0.061
476 H1PR 32.857 34.817 -9.182 hc 34 NIL_34    0.032
477 H1PS 31.353 35.042 -8.308 hc 34 NIL_34    0.032
478 N0BY 27.626 24.452 -3.167 n 35 NIL_35   -0.284
479 C1D0 28.899 24.000 -3.844 c3 35 NIL_35    0.131
480 C1D1 29.711 25.239 -4.329 c3 35 NIL_35    0.007
481 C1D2 28.676 23.213 -5.173 c3 35 NIL_35    0.046
482 C1D3 29.805 23.118 -2.964 c 35 NIL_35    0.510
483 C1D4 29.259 25.424 -5.787 c3 35 NIL_35    0.105
484 N0BZ 29.120 24.072 -6.280 n 35 NIL_35   -0.285
485 O0BD 30.858 22.674 -3.385 o 35 NIL_35   -0.544
486 C1D5 30.065 26.368 -6.648 c 35 NIL_35    0.510
487 O0BE 30.462 27.418 -6.179 o 35 NIL_35   -0.549
488 H1PJ 28.268 25.864 -5.803 h1 35 NIL_35    0.061
489 H1PK 29.254 22.284 -5.196 h1 35 NIL_35    0.050
490 H1PL 27.627 22.946 -5.310 h1 35 NIL_35    0.050
491 H1PM 30.786 25.040 -4.320 hc 35 NIL_35    0.032
492 H1PN 29.538 26.124 -3.716 hc 35 NIL_35    0.032
493 C1FL 30.152 19.088 17.373 c3 36 NIL_36   -0.004
494 C1FM 30.062 17.971 16.315 c3 36 NIL_36   -0.052
495 H1T3 30.000 16.997 16.805 hc 36 NIL_36    0.024
496 H1T4 30.939 17.967 15.664 hc 36 NIL_36    0.024
497 H1T5 29.170 18.101 15.699 hc 36 NIL_36    0.024
498 H1T6 29.271 19.019 18.016 h1 36 NIL_36    0.043
499 H1T7 31.040 18.932 17.993 h1 36 NIL_36    0.043
500 C1FV 33.089 27.382 -7.753 c3 37 NIL_37   -0.064
501 C1FW 32.315 27.188 -9.072 c3 37 NIL_37   -0.040
502 C1FX 30.773 27.050 -8.917 c3 37 NIL_37    0.015
503 H1TR 30.373 28.024 -8.622 h1 37 NIL_37    0.047
504 H1TS 30.364 26.849 -9.909 h1 37 NIL_37    0.047
505 H1TT 32.510 28.052 -9.711 hc 37 NIL_37    0.028
506 H1TU 32.731 26.333 -9.602 hc 37 NIL_37    0.028
507 H1TV 34.158 27.460 -7.965 hc 37 NIL_37    0.023
508 H1TW 32.943 26.533 -7.081 hc 37 NIL_37    0.023
509 H1TX 32.773 28.295 -7.245 hc 37 NIL_37    0.023
510 O0BA 38.032 27.542 -17.753 o 38 NIL_38   -0.535
511 C1CJ 37.811 28.156 -16.724 c 38 NIL_38    0.510
512 C1CK 37.506 29.557 -16.876 c2 38 NIL_38    0.037
513 C1CL 37.057 29.990 -18.067 c2 38 NIL_38   -0.049
514 C1CM 37.569 30.467 -15.885 c2 38 NIL_38   -0.049
515 C1CN 36.657 31.248 -18.249 c2 38 NIL_38   -0.057
516 C1CO 37.171 31.727 -16.070 c2 38 NIL_38   -0.057
517 C1CP 36.695 32.129 -17.247 c2 38 NIL_38   -0.031
518 C1CQ 36.158 33.535 -17.442 c3 38 NIL_38    0.036
519 N0BV 35.069 33.914 -16.531 n 38 NIL_38   -0.310
520 C1CR 33.980 33.163 -16.244 c 38 NIL_38    0.510
521 C1CS 32.973 33.853 -15.334 c3 38 NIL_38    0.105
522 O0BB 33.832 32.028 -16.659 o 38 NIL_38   -0.553
523 N0BW 31.587 33.352 -15.431 n 38 NIL_38   -0.283
524 C1CT 33.403 33.706 -13.858 c3 38 NIL_38    0.007
525 C1CU 31.041 33.241 -14.072 c3 38 NIL_38    0.046
526 C1CV 32.083 33.729 -13.033 c3 38 NIL_38    0.131
527 N0BX 31.743 35.104 -12.499 n 38 NIL_38   -0.284
528 C1CW 32.106 32.623 -11.959 c 38 NIL_38    0.510
529 C1CX 31.959 36.277 -13.404 c3 38 NIL_38    0.015
530 O0BC 32.588 31.523 -12.167 o 38 NIL_38   -0.544
531 C1CY 30.800 36.634 -14.364 c3 38 NIL_38   -0.040
532 C1CZ 29.450 36.848 -13.651 c3 38 NIL_38   -0.064
533 H1P0 28.702 37.195 -14.362 hc 38 NIL_38    0.023
534 H1P1 29.545 37.598 -12.863 hc 38 NIL_38    0.023
535 H1P2 29.087 35.918 -13.208 hc 38 NIL_38    0.023
536 H1P3 30.683 35.870 -15.131 hc 38 NIL_38    0.028
537 H1P4 31.065 37.556 -14.886 hc 38 NIL_38    0.028
538 H1P5 32.869 36.164 -13.986 h1 38 NIL_38    0.047
539 H1P6 32.150 37.161 -12.791 h1 38 NIL_38    0.047
540 H1P7 30.791 32.191 -13.895 h1 38 NIL_38    0.050
541 H1P8 30.127 33.835 -13.989 h1 38 NIL_38    0.050
542 H1P9 33.922 32.750 -13.751 hc 38 NIL_38    0.032
543 H1PA 34.117 34.474 -13.551 hc 38 NIL_38    0.032
544 H1PB 32.959 34.907 -15.619 h1 38 NIL_38    0.061
545 H1PC 36.970 34.255 -17.316 h1 38 NIL_38    0.052
546 H1PD 35.776 33.643 -18.461 h1 38 NIL_38    0.052
547 H1PE 37.213 32.422 -15.234 ha 38 NIL_38    0.063
548 H1PF 36.270 31.544 -19.219 ha 38 NIL_38    0.063
549 H1PG 37.942 30.235 -14.901 ha 38 NIL_38    0.063
550 H1PH 36.965 29.314 -18.914 ha 38 NIL_38    0.063
551 H1PI 35.115 34.842 -16.138 hn 38 NIL_38    0.150
552 C1C5 38.712 28.473 -5.009 c3 39 NIL_39    0.046
553 C1C6 38.622 27.516 -3.786 c3 39 NIL_39    0.131
554 N0BR 38.273 27.741 -6.201 n 39 NIL_39   -0.285
555 C1C7 37.859 26.281 -4.358 c3 39 NIL_39    0.007
556 N0BS 39.984 27.143 -3.240 n 39 NIL_39   -0.284
557 C1C8 37.714 28.263 -2.793 c 39 NIL_39    0.510
558 C1C9 38.121 26.336 -5.873 c3 39 NIL_39    0.105
559 O0B6 36.545 28.497 -3.044 o 39 NIL_39   -0.544
560 C1CA 37.134 25.595 -6.745 c 39 NIL_39    0.510
561 O0B7 36.519 24.638 -6.312 o 39 NIL_39   -0.549
562 H1OL 39.076 25.865 -6.107 h1 39 NIL_39    0.061
563 H1OM 36.783 26.356 -4.188 hc 39 NIL_39    0.032
564 H1ON 38.186 25.336 -3.916 hc 39 NIL_39    0.032
565 H1OO 38.051 29.337 -4.891 h1 39 NIL_39    0.050
566 H1OP 39.727 28.851 -5.143 h1 39 NIL_39    0.050
567 C1AQ 31.779 33.619 -3.604 c3 40 NIL_40    0.131
568 C1AR 33.165 33.334 -4.268 c3 40 NIL_40    0.007
569 C1AS 30.794 33.272 -4.758 c3 40 NIL_40    0.046
570 N0BB 31.608 35.056 -3.152 n 40 NIL_40   -0.284
571 C1AT 31.491 32.583 -2.500 c 40 NIL_40    0.510
572 C1AU 32.930 33.561 -5.775 c3 40 NIL_40    0.105
573 N0BC 31.550 33.181 -6.015 n 40 NIL_40   -0.285
574 O0AQ 31.809 31.412 -2.606 o 40 NIL_40   -0.544
575 C1AV 33.919 32.921 -6.721 c 40 NIL_40    0.510
576 O0AR 35.056 32.672 -6.362 o 40 NIL_40   -0.549
577 H1N9 33.003 34.622 -6.013 h1 40 NIL_40    0.061
578 H1NA 30.316 32.302 -4.591 h1 40 NIL_40    0.050
579 H1NB 30.009 34.028 -4.843 h1 40 NIL_40    0.050
580 H1NC 33.468 32.293 -4.136 hc 40 NIL_40    0.032
581 H1ND 33.970 33.954 -3.869 hc 40 NIL_40    0.032
582 C1FS 42.286 28.882 5.483 c3 41 NIL_41   -0.064
583 C1FT 41.927 27.464 5.962 c3 41 NIL_41   -0.040
584 C1FU 40.419 27.124 5.839 c3 41 NIL_41    0.015
585 H1TK 40.219 27.028 4.775 h1 41 NIL_41    0.047
586 H1TL 40.253 26.141 6.290 h1 41 NIL_41    0.047
587 H1TM 42.490 26.744 5.362 hc 41 NIL_41    0.028
588 H1TN 42.267 27.337 6.991 hc 41 NIL_41    0.028
589 H1TO 41.778 29.636 6.089 hc 41 NIL_41    0.023
590 H1TP 42.011 29.016 4.436 hc 41 NIL_41    0.023
591 H1TQ 43.362 29.046 5.567 hc 41 NIL_41    0.023
592 C1AL 38.537 24.953 17.925 c3 42 NIL_42    0.104
593 N0B9 37.917 24.987 19.250 n 42 NIL_42   -0.286
594 C1AM 40.048 25.087 18.175 c3 42 NIL_42   -0.005
595 C1AN 38.097 23.765 17.092 c 42 NIL_42    0.510
596 C1AO 38.883 25.513 20.223 c3 42 NIL_42    0.034
597 C1AP 40.098 26.000 19.413 c3 42 NIL_42    0.040
598 O0AP 38.796 23.257 16.239 o 42 NIL_42   -0.552
599 N0BA 39.913 27.405 19.024 n 42 NIL_42   -0.310
600 H1N2 41.030 25.882 19.975 h1 42 NIL_42    0.052
601 H1N3 39.186 24.698 20.885 h1 42 NIL_42    0.049
602 H1N4 38.442 26.322 20.813 h1 42 NIL_42    0.049
603 H1N5 40.580 25.506 17.315 hc 42 NIL_42    0.031
604 H1N6 40.480 24.114 18.420 hc 42 NIL_42    0.031
605 H1N7 38.190 25.841 17.387 h1 42 NIL_42    0.061
606 H1N8 38.959 27.711 18.902 hn 42 NIL_42    0.150
607 N0CA 25.885 27.668 17.143 n 43 NIL_43   -0.298
608 C1DX 27.008 28.281 17.883 c3 43 NIL_43    0.129
609 H1QH 25.224 28.297 16.712 hn 43 NIL_43    0.151
610 C1DY 28.184 28.526 16.903 c3 43 NIL_43    0.006
611 C1DZ 26.587 29.702 18.340 c3 43 NIL_43    0.045
612 C1E0 27.492 27.392 19.037 c 43 NIL_43    0.510
613 C1E1 28.366 30.050 16.804 c3 43 NIL_43    0.105
614 N0CB 27.176 30.653 17.394 n 43 NIL_43   -0.285
615 O0BN 28.021 27.832 20.040 o 43 NIL_43   -0.545
616 C1E2 28.654 30.560 15.402 c 43 NIL_43    0.510
617 O0BO 29.262 29.882 14.594 o 43 NIL_43   -0.549
618 H1QI 29.220 30.342 17.422 h1 43 NIL_43    0.061
619 H1QJ 25.498 29.805 18.363 h1 43 NIL_43    0.050
620 H1QK 26.985 29.934 19.331 h1 43 NIL_43    0.050
621 H1QL 27.953 28.100 15.922 hc 43 NIL_43    0.032
622 H1QM 29.112 28.062 17.248 hc 43 NIL_43    0.032
623 C1AJ 31.467 22.887 13.161 c 44 NIL_44    0.510
624 C1AK 32.683 22.526 13.995 c3 44 NIL_44    0.092
625 O0AO 30.414 23.283 13.623 o 44 NIL_44   -0.557
626 H1N0 32.821 21.444 13.933 h1 44 NIL_44    0.057
627 H1N1 33.546 22.970 13.492 h1 44 NIL_44    0.057
628 C1B2 29.115 24.332 0.086 c3 45 NIL_45    0.007
629 C1B3 28.360 23.539 -0.989 c3 45 NIL_45    0.105
630 C1B4 30.206 23.331 0.574 c3 45 NIL_45    0.131
631 N0BF 29.418 22.847 -1.694 n 45 NIL_45   -0.285
632 C1B5 27.405 24.355 -1.826 c 45 NIL_45    0.510
633 C1B6 30.293 22.324 -0.632 c3 45 NIL_45    0.046
634 C1B7 29.549 22.636 1.781 c 45 NIL_45    0.510
635 N0BG 31.493 24.047 0.929 n 45 NIL_45   -0.284
636 O0AU 26.431 24.855 -1.295 o 45 NIL_45   -0.549
637 O0AV 28.761 21.714 1.676 o 45 NIL_45   -0.544
638 H1NJ 31.300 22.161 -1.002 h1 45 NIL_45    0.050
639 H1NK 29.921 21.336 -0.352 h1 45 NIL_45    0.050
640 H1NL 27.739 22.783 -0.502 h1 45 NIL_45    0.061
641 H1NM 29.553 25.231 -0.352 hc 45 NIL_45    0.032
642 H1NN 28.447 24.654 0.889 hc 45 NIL_45    0.032
643 C18K -0.812 36.140 -4.000 c3 46 NIL_46    0.015
644 C18L -1.777 36.669 -5.085 c3 46 NIL_46   -0.040
645 C18M -1.121 37.800 -5.895 c3 46 NIL_46   -0.064
646 H1JT -1.828 38.196 -6.628 hc 46 NIL_46    0.023
647 H1JU -0.243 37.428 -6.428 hc 46 NIL_46    0.023
648 H1JV -0.811 38.618 -5.240 hc 46 NIL_46    0.023
649 H1JW -2.690 37.042 -4.613 hc 46 NIL_46    0.028
650 H1JX -2.067 35.874 -5.772 hc 46 NIL_46    0.028
651 H1JY 0.133 35.845 -4.449 h1 46 NIL_46    0.047
652 H1JZ -0.547 36.982 -3.352 h1 46 NIL_46    0.047
653 C184 -5.701 25.271 6.077 c3 47 NIL_47   -0.040
654 C185 -4.157 25.263 6.032 c3 47 NIL_47    0.015
655 C186 -6.240 26.674 5.742 c3 47 NIL_47   -0.064
656 H1J3 -5.916 26.986 4.746 hc 47 NIL_47    0.023
657 H1J4 -5.879 27.407 6.468 hc 47 NIL_47    0.023
658 H1J5 -7.332 26.679 5.767 hc 47 NIL_47    0.023
659 H1J6 -3.865 25.511 5.014 h1 47 NIL_47    0.047
660 H1J7 -3.779 26.068 6.670 h1 47 NIL_47    0.047
661 H1J8 -6.052 24.984 7.071 hc 47 NIL_47    0.028
662 H1J9 -6.109 24.552 5.364 hc 47 NIL_47    0.028
663 O09S 5.032 27.542 -17.753 o 48 NIL_48   -0.535
664 C161 4.811 28.156 -16.724 c 48 NIL_48    0.510
665 C162 4.506 29.557 -16.876 c2 48 NIL_48    0.037
666 C163 4.057 29.990 -18.067 c2 48 NIL_48   -0.049
667 C164 4.569 30.467 -15.885 c2 48 NIL_48   -0.049
668 C165 3.657 31.248 -18.249 c2 48 NIL_48   -0.057
669 C166 4.171 31.727 -16.070 c2 48 NIL_48   -0.057
670 C167 3.695 32.129 -17.247 c2 48 NIL_48   -0.031
671 C168 3.158 33.535 -17.442 c3 48 NIL_48    0.036
672 N0AA 2.069 33.914 -16.531 n 48 NIL_48   -0.310
673 C169 0.980 33.163 -16.244 c 48 NIL_48    0.510
674 C16A -0.027 33.853 -15.334 c3 48 NIL_48    0.105
675 O09T 0.832 32.028 -16.659 o 48 NIL_48   -0.553
676 N0AB -1.413 33.352 -15.431 n 48 NIL_48   -0.283
677 C16B 0.403 33.706 -13.858 c3 48 NIL_48    0.007
678 C16C -1.959 33.241 -14.072 c3 48 NIL_48    0.046
679 C16D -0.917 33.729 -13.033 c3 48 NIL_48    0.131
680 N0AC -1.257 35.104 -12.499 n 48 NIL_48   -0.284
681 C16E -0.894 32.623 -11.959 c 48 NIL_48    0.510
682 C16F -1.041 36.277 -13.404 c3 48 NIL_48    0.015
683 O09U -0.412 31.523 -12.167 o 48 NIL_48   -0.544
684 C16G -2.200 36.634 -14.364 c3 48 NIL_48   -0.040
685 C16H -3.550 36.848 -13.651 c3 48 NIL_48   -0.064
686 H1GR -4.298 37.195 -14.362 hc 48 NIL_48    0.023
687 H1GS -3.455 37.598 -12.863 hc 48 NIL_48    0.023
688 H1GT -3.913 35.918 -13.208 hc 48 NIL_48    0.023
689 H1GU -2.317 35.870 -15.131 hc 48 NIL_48    0.028
690 H1GV -1.935 37.556 -14.886 hc 48 NIL_48    0.028
691 H1GW -0.131 36.164 -13.986 h1 48 NIL_48    0.047
692 H1GX -0.850 37.161 -12.791 h1 48 NIL_48    0.047
693 H1GY -2.209 32.191 -13.895 h1 48 NIL_48    0.050
694 H1GZ -2.873 33.835 -13.989 h1 48 NIL_48    0.050
695 H1H0 0.922 32.750 -13.751 hc 48 NIL_48    0.032
696 H1H1 1.117 34.474 -13.551 hc 48 NIL_48    0.032
697 H1H2 -0.041 34.907 -15.619 h1 48 NIL_48    0.061
698 H1H3 3.970 34.255 -17.316 h1 48 NIL_48    0.052
699 H1H4 2.776 33.643 -18.461 h1 48 NIL_48    0.052
700 H1H5 4.213 32.422 -15.234 ha 48 NIL_48    0.063
701 H1H6 3.270 31.544 -19.219 ha 48 NIL_48    0.063
702 H1H7 4.942 30.235 -14.901 ha 48 NIL_48    0.063
703 H1H8 3.965 29.314 -18.914 ha 48 NIL_48    0.063
704 H1H9 2.115 34.842 -16.138 hn 48 NIL_48    0.150
705 C14Q 2.629 34.232 17.276 c3 49 NIL_49    0.129
706 C14R 2.341 33.124 16.246 c3 49 NIL_49    0.006
707 C14S 4.108 33.959 17.652 c3 49 NIL_49    0.045
708 N09W 2.481 35.562 16.653 n 49 NIL_49   -0.298
709 C14T 1.688 34.029 18.468 c 49 NIL_49    0.510
710 C14U 3.232 31.961 16.696 c3 49 NIL_49    0.105
711 N09X 4.432 32.586 17.234 n 49 NIL_49   -0.285
712 H1FF 3.292 35.942 16.188 hn 49 NIL_49    0.151
713 O09E 1.933 33.268 19.386 o 49 NIL_49   -0.545
714 C14V 3.480 30.938 15.613 c 49 NIL_49    0.510
715 O09F 2.586 30.619 14.852 o 49 NIL_49   -0.549
716 H1FG 2.747 31.427 17.518 h1 49 NIL_49    0.061
717 H1FH 4.766 34.644 17.109 h1 49 NIL_49    0.050
718 H1FI 4.279 34.078 18.725 h1 49 NIL_49    0.050
719 H1FJ 2.648 33.451 15.248 hc 49 NIL_49    0.032
720 H1FK 1.285 32.845 16.207 hc 49 NIL_49    0.032
721 C148 -1.221 33.619 -3.604 c3 50 NIL_50    0.131
722 C149 0.165 33.334 -4.268 c3 50 NIL_50    0.007
723 C14A -2.206 33.272 -4.758 c3 50 NIL_50    0.046
724 N09Q -1.392 35.056 -3.152 n 50 NIL_50   -0.284
725 C14B -1.509 32.583 -2.500 c 50 NIL_50    0.510
726 C14C -0.070 33.561 -5.775 c3 50 NIL_50    0.105
727 N09R -1.450 33.181 -6.015 n 50 NIL_50   -0.285
728 O098 -1.191 31.412 -2.606 o 50 NIL_50   -0.544
729 C14D 0.919 32.921 -6.721 c 50 NIL_50    0.510
730 O099 2.056 32.672 -6.362 o 50 NIL_50   -0.549
731 H1F0 0.003 34.622 -6.013 h1 50 NIL_50    0.061
732 H1F1 -2.684 32.302 -4.591 h1 50 NIL_50    0.050
733 H1F2 -2.991 34.028 -4.843 h1 50 NIL_50    0.050
734 H1F3 0.468 32.293 -4.136 hc 50 NIL_50    0.032
735 H1F4 0.970 33.954 -3.869 hc 50 NIL_50    0.032
736 O09M 0.079 20.719 18.159 o 51 NIL_51   -0.545
737 C15H -0.003 21.786 17.579 c 51 NIL_51    0.510
738 C15I -0.983 22.060 16.425 c3 51 NIL_51    0.128
739 C15J -2.240 22.718 17.032 c3 51 NIL_51    0.003
740 C15K -1.607 20.725 15.913 c3 51 NIL_51    0.029
741 N0A4 -0.342 22.970 15.412 n 51 NIL_51   -0.275
742 C15L -2.981 21.553 17.709 c3 51 NIL_51    0.090
743 N0A5 -2.798 20.437 16.757 n3 51 NIL_51   -0.290
744 C15M -4.410 21.900 18.096 c 51 NIL_51    0.510
745 O09N -5.350 21.153 17.902 o 51 NIL_51   -0.557
746 H1G7 -2.461 21.319 18.643 h1 51 NIL_51    0.057
747 H1G8 -1.980 20.826 14.893 h1 51 NIL_51    0.046
748 H1G9 -0.874 19.914 15.937 h1 51 NIL_51    0.046
749 H1GA -2.866 23.147 16.246 hc 51 NIL_51    0.032
750 H1GB -1.999 23.507 17.747 hc 51 NIL_51    0.032
751 C17R -2.344 22.916 10.789 c3 52 NIL_52    0.013
752 N0AT -1.335 22.717 11.835 n 52 NIL_52   -0.314
753 C17S -1.735 22.681 9.387 c3 52 NIL_52   -0.010
754 C17T -2.794 22.428 8.282 c3 52 NIL_52    0.101
755 C17U -3.466 23.711 7.815 c 52 NIL_52    0.510
756 N0AU -2.197 21.622 7.220 n 52 NIL_52   -0.302
757 O0A9 -3.955 24.466 8.634 o 52 NIL_52   -0.550
758 H1IJ -3.597 21.816 8.704 h1 52 NIL_52    0.061
759 H1IK -1.092 23.521 9.110 hc 52 NIL_52    0.031
760 H1IL -1.090 21.800 9.451 hc 52 NIL_52    0.031
761 H1IM -2.742 23.931 10.862 h1 52 NIL_52    0.047
762 H1IN -3.156 22.203 10.961 h1 52 NIL_52    0.047
763 H1IO -1.759 20.763 7.517 hn 52 NIL_52    0.150
764 H1IP -0.429 22.391 11.530 hn 52 NIL_52    0.149
765 C16O -1.115 34.364 -8.981 c3 53 NIL_53    0.007
766 C16P -1.893 34.183 -10.293 c3 53 NIL_53    0.105
767 C16Q -0.958 32.926 -8.404 c3 53 NIL_53    0.131
768 N0AF -1.476 32.883 -10.770 n 53 NIL_53   -0.285
769 C16R -1.712 35.342 -11.235 c 53 NIL_53    0.510
770 C16S -1.463 32.025 -9.580 c3 53 NIL_53    0.046
771 N0AG 0.474 32.666 -7.988 n 53 NIL_53   -0.284
772 C16T -1.950 32.876 -7.231 c 53 NIL_53    0.510
773 O09X -1.978 36.462 -10.839 o 53 NIL_53   -0.549
774 O09Y -3.135 32.630 -7.361 o 53 NIL_53   -0.544
775 H1HF -0.882 31.116 -9.721 h1 53 NIL_53    0.050
776 H1HG -2.495 31.703 -9.426 h1 53 NIL_53    0.050
777 H1HH -2.964 34.126 -10.077 h1 53 NIL_53    0.061
778 H1HI -0.143 34.817 -9.182 hc 53 NIL_53    0.032
779 H1HJ -1.647 35.042 -8.308 hc 53 NIL_53    0.032
780 C187 8.767 26.952 -5.079 c3 54 NIL_54   -0.040
781 C188 7.843 26.239 -4.066 c3 54 NIL_54    0.015
782 C189 9.699 25.942 -5.774 c3 54 NIL_54   -0.064
783 H1JA 10.302 25.399 -5.041 hc 54 NIL_54    0.023
784 H1JB 10.377 26.459 -6.456 hc 54 NIL_54    0.023
785 H1JC 9.119 25.218 -6.350 hc 54 NIL_54    0.023
786 H1JD 7.255 25.481 -4.577 h1 54 NIL_54    0.047
787 H1JE 8.487 25.662 -3.395 h1 54 NIL_54    0.047
788 H1JF 9.369 27.702 -4.561 hc 54 NIL_54    0.028
789 H1JG 8.185 27.461 -5.847 hc 54 NIL_54    0.028
790 C141 -1.533 22.887 13.161 c 55 NIL_55    0.510
791 C142 -0.317 22.526 13.995 c3 55 NIL_55    0.092
792 O096 -2.586 23.283 13.623 o 55 NIL_55   -0.557
793 H1ER -0.179 21.444 13.933 h1 55 NIL_55    0.057
794 H1ES 0.546 22.970 13.492 h1 55 NIL_55    0.057
795 C13K -2.995 31.962 -16.756 c2 56 NIL_56    0.037
796 C13L -2.002 32.983 -16.607 c 56 NIL_56    0.510
797 C13M -3.960 31.709 -15.857 c2 56 NIL_56   -0.049
798 C13N -2.919 31.168 -17.834 c2 56 NIL_56   -0.049
799 O093 -1.589 33.485 -17.639 o 56 NIL_56   -0.535
800 C13O -4.801 30.685 -16.026 c2 56 NIL_56   -0.057
801 C13P -3.755 30.145 -17.995 c2 56 NIL_56   -0.057
802 C13Q -4.699 29.884 -17.088 c2 56 NIL_56   -0.031
803 C13R -5.621 28.695 -17.271 c3 56 NIL_56    0.036
804 N09L -5.419 27.564 -16.356 n 56 NIL_56   -0.310
805 C13S -4.241 26.941 -16.113 c 56 NIL_56    0.510
806 C13T -4.383 25.631 -15.348 c3 56 NIL_56    0.105
807 O094 -3.167 27.387 -16.472 o 56 NIL_56   -0.553
808 N09M -3.410 24.567 -15.678 n 56 NIL_56   -0.283
809 C13U -4.242 25.864 -13.832 c3 56 NIL_56    0.007
810 C13V -3.121 23.832 -14.436 c3 56 NIL_56    0.046
811 C13W -3.877 24.481 -13.243 c3 56 NIL_56    0.131
812 N09N -5.149 23.816 -12.813 n 56 NIL_56   -0.284
813 C13X -2.861 24.614 -12.094 c 56 NIL_56    0.510
814 C13Y -6.042 23.266 -13.863 c3 56 NIL_56    0.015
815 O095 -1.789 25.170 -12.238 o 56 NIL_56   -0.544
816 C13Z -6.455 21.799 -13.605 c3 56 NIL_56   -0.040
817 C140 -5.262 20.825 -13.611 c3 56 NIL_56   -0.064
818 H1E8 -4.503 21.123 -12.885 hc 56 NIL_56    0.023
819 H1E9 -4.803 20.785 -14.600 hc 56 NIL_56    0.023
820 H1EA -5.602 19.821 -13.348 hc 56 NIL_56    0.023
821 H1EB -7.166 21.495 -14.375 hc 56 NIL_56    0.028
822 H1EC -6.975 21.724 -12.648 hc 56 NIL_56    0.028
823 H1ED -5.568 23.294 -14.842 h1 56 NIL_56    0.047
824 H1EE -6.938 23.892 -13.912 h1 56 NIL_56    0.047
825 H1EF -2.050 23.907 -14.251 h1 56 NIL_56    0.050
826 H1EG -3.391 22.778 -14.555 h1 56 NIL_56    0.050
827 H1EH -3.439 26.584 -13.649 hc 56 NIL_56    0.032
828 H1EI -5.161 26.270 -13.403 hc 56 NIL_56    0.032
829 H1EJ -5.381 25.245 -15.568 h1 56 NIL_56    0.061
830 H1EK -6.655 29.029 -17.161 h1 56 NIL_56    0.052
831 H1EL -5.519 28.308 -18.289 h1 56 NIL_56    0.052
832 H1EM -3.647 29.508 -18.869 ha 56 NIL_56    0.063
833 H1EN -5.569 30.496 -15.279 ha 56 NIL_56    0.063
834 H1EO -2.143 31.315 -18.582 ha 56 NIL_56    0.063
835 H1EP -4.100 32.329 -14.982 ha 56 NIL_56    0.063
836 H1EQ -6.259 27.142 -15.988 hn 56 NIL_56    0.150
837 C17L 6.134 27.544 0.176 c3 57 NIL_57    0.007
838 C17M 6.533 28.303 -1.098 c3 57 NIL_57    0.105
839 C17N 4.920 28.333 0.747 c3 57 NIL_57    0.131
840 N0AR 5.255 28.706 -1.637 n 57 NIL_57   -0.285
841 C17O 7.432 27.496 -2.002 c 57 NIL_57    0.510
842 C17P 4.504 29.213 -0.484 c3 57 NIL_57    0.046
843 C17Q 5.468 29.219 1.876 c 57 NIL_57    0.510
844 N0AS 3.879 27.366 1.253 n 57 NIL_57   -0.284
845 O0A7 8.538 27.187 -1.599 o 57 NIL_57   -0.549
846 O0A8 5.948 30.321 1.690 o 57 NIL_57   -0.544
847 H1IE 3.440 29.200 -0.686 h1 57 NIL_57    0.050
848 H1IF 4.780 30.261 -0.349 h1 57 NIL_57    0.050
849 H1IG 7.089 29.206 -0.830 h1 57 NIL_57    0.061
850 H1IH 5.836 26.526 -0.091 hc 57 NIL_57    0.032
851 H1II 6.969 27.481 0.880 hc 57 NIL_57    0.032
852 C173 5.835 29.366 4.354 c3 58 NIL_58    0.046
853 C174 5.334 28.531 5.565 c3 58 NIL_58    0.131
854 N0AL 5.397 28.703 3.124 n 58 NIL_58   -0.285
855 C175 4.601 27.316 4.917 c3 58 NIL_58    0.007
856 N0AM 6.458 28.084 6.458 n 58 NIL_58   -0.284
857 C176 4.270 29.389 6.261 c 58 NIL_58    0.510
858 C177 4.997 27.337 3.429 c3 58 NIL_58    0.105
859 O0A1 3.287 29.806 5.677 o 58 NIL_58   -0.547
860 C178 3.953 26.786 2.484 c 58 NIL_58    0.510
861 O0A2 3.208 25.888 2.831 o 58 NIL_58   -0.549
862 H1HY 5.874 26.704 3.276 h1 58 NIL_58    0.061
863 H1HZ 3.516 27.415 5.002 hc 58 NIL_58    0.032
864 H1I0 4.869 26.363 5.380 hc 58 NIL_58    0.032
865 H1I1 5.437 30.384 4.377 h1 58 NIL_58    0.050
866 H1I2 6.920 29.432 4.344 h1 58 NIL_58    0.050
867 C179 -3.300 24.768 -8.570 c3 59 NIL_59    0.131
868 C17A -4.642 24.997 -9.336 c3 59 NIL_59    0.007
869 C17B -2.385 24.157 -9.677 c3 59 NIL_59    0.046
870 N0AN -2.737 26.026 -7.955 n 59 NIL_59   -0.284
871 C17C -3.640 23.676 -7.543 c 59 NIL_59    0.510
872 C17D -4.566 23.943 -10.452 c3 59 NIL_59    0.105
873 N0AO -3.192 24.061 -10.902 n 59 NIL_59   -0.285
874 O0A3 -3.720 22.495 -7.830 o 59 NIL_59   -0.544
875 C17E -5.612 23.980 -11.544 c 59 NIL_59    0.510
876 O0A4 -6.796 24.048 -11.281 o 59 NIL_59   -0.549
877 H1I3 -4.686 22.946 -10.019 h1 59 NIL_59    0.061
878 H1I4 -1.499 24.752 -9.855 h1 59 NIL_59    0.050
879 H1I5 -2.037 23.157 -9.408 h1 59 NIL_59    0.050
880 H1I6 -4.699 25.996 -9.774 hc 59 NIL_59    0.032
881 H1I7 -5.515 24.852 -8.694 hc 59 NIL_59    0.032
882 N0AZ -3.503 32.719 11.770 n 60 NIL_60   -0.314
883 C18G -2.293 33.070 11.018 c3 60 NIL_60    0.013
884 C18H -2.191 32.303 9.681 c3 60 NIL_60   -0.010
885 C18I -3.337 32.598 8.678 c3 60 NIL_60    0.101
886 C18J -3.184 33.992 8.096 c 60 NIL_60    0.510
887 N0B0 -3.377 31.532 7.687 n 60 NIL_60   -0.302
888 O0AE -3.427 34.957 8.798 o 60 NIL_60   -0.550
889 H1JM -4.297 32.581 9.202 h1 60 NIL_60    0.061
890 H1JN -1.232 32.533 9.209 hc 60 NIL_60    0.031
891 H1JO -2.177 31.233 9.911 hc 60 NIL_60    0.031
892 H1JP -1.419 32.814 11.622 h1 60 NIL_60    0.047
893 H1JQ -2.278 34.148 10.843 h1 60 NIL_60    0.047
894 H1JR -3.637 30.620 8.031 hn 60 NIL_60    0.150
895 H1JS -4.290 32.381 11.237 hn 60 NIL_60    0.149
896 C143 5.537 24.953 17.925 c3 61 NIL_61    0.104
897 N09O 4.917 24.987 19.250 n 61 NIL_61   -0.286
898 C144 7.048 25.087 18.175 c3 61 NIL_61   -0.005
899 C145 5.097 23.765 17.092 c 61 NIL_61    0.510
900 C146 5.883 25.513 20.223 c3 61 NIL_61    0.034
901 C147 7.098 26.000 19.413 c3 61 NIL_61    0.040
902 O097 5.796 23.257 16.239 o 61 NIL_61   -0.552
903 N09P 6.913 27.405 19.024 n 61 NIL_61   -0.310
904 H1ET 8.030 25.882 19.975 h1 61 NIL_61    0.052
905 H1EU 6.186 24.698 20.885 h1 61 NIL_61    0.049
906 H1EV 5.442 26.322 20.813 h1 61 NIL_61    0.049
907 H1EW 7.580 25.506 17.315 hc 61 NIL_61    0.031
908 H1EX 7.480 24.114 18.420 hc 61 NIL_61    0.031
909 H1EY 5.190 25.841 17.387 h1 61 NIL_61    0.061
910 H1EZ 5.959 27.711 18.902 hn 61 NIL_61    0.150
911 C130 0.269 25.443 -2.268 c3 62 NIL_62   -0.064
912 C131 -0.869 25.269 -1.244 c3 62 NIL_62   -0.040
913 C132 -0.488 24.248 -0.149 c3 62 NIL_62    0.015
914 H1DI -0.214 23.298 -0.603 h1 62 NIL_62    0.047
915 H1DJ 0.441 24.606 0.300 h1 62 NIL_62    0.047
916 H1DK -1.113 26.231 -0.790 hc 62 NIL_62    0.028
917 H1DL -1.756 24.943 -1.777 hc 62 NIL_62    0.028
918 H1DM 1.174 25.823 -1.793 hc 62 NIL_62    0.023
919 H1DN -0.028 26.150 -3.046 hc 62 NIL_62    0.023
920 H1DO 0.507 24.489 -2.742 hc 62 NIL_62    0.023
921 C19G 5.010 29.402 14.469 c3 63 NIL_63    0.092
922 C19H 5.419 30.019 13.147 c 63 NIL_63    0.510
923 O0AH 5.380 31.215 12.923 o 63 NIL_63   -0.557
924 H1LP 4.114 28.806 14.274 h1 63 NIL_63    0.057
925 H1LQ 5.791 28.705 14.781 h1 63 NIL_63    0.057
926 C133 3.446 25.443 -16.369 c 64 NIL_64    0.510
927 C134 4.594 25.960 -15.513 c3 64 NIL_64    0.105
928 O090 2.521 26.147 -16.727 o 64 NIL_64   -0.553
929 N09I 3.538 24.128 -16.683 n 64 NIL_64   -0.310
930 N09J 4.806 27.424 -15.566 n 64 NIL_64   -0.283
931 C135 4.372 25.577 -14.032 c3 64 NIL_64    0.007
932 C136 2.684 23.405 -17.637 c3 64 NIL_64    0.036
933 C137 4.943 27.913 -14.191 c3 64 NIL_64    0.046
934 C138 5.005 26.728 -13.202 c3 64 NIL_64    0.131
935 C139 1.187 23.589 -17.471 c2 64 NIL_64   -0.031
936 N09K 6.434 26.463 -12.782 n 64 NIL_64   -0.284
937 C13A 4.075 27.147 -12.049 c 64 NIL_64    0.510
938 C13B 0.502 22.923 -16.538 c2 64 NIL_64   -0.057
939 C13C 0.527 24.443 -18.254 c2 64 NIL_64   -0.057
940 C13D 7.328 25.747 -13.742 c3 64 NIL_64    0.015
941 O091 2.861 27.111 -12.136 o 64 NIL_64   -0.544
942 C13E -0.805 23.136 -16.366 c2 64 NIL_64   -0.049
943 C13F -0.776 24.660 -18.082 c2 64 NIL_64   -0.049
944 C13G 8.177 26.675 -14.642 c3 64 NIL_64   -0.040
945 C13H -1.465 24.030 -17.120 c2 64 NIL_64    0.037
946 C13I 8.968 25.857 -15.683 c3 64 NIL_64   -0.064
947 C13J -2.829 24.415 -16.906 c 64 NIL_64    0.510
948 O092 -3.461 24.750 -17.892 o 64 NIL_64   -0.535
949 H1DP 9.624 25.134 -15.192 hc 64 NIL_64    0.023
950 H1DQ 9.585 26.516 -16.298 hc 64 NIL_64    0.023
951 H1DR 8.289 25.313 -16.344 hc 64 NIL_64    0.023
952 H1DS 8.877 27.247 -14.028 hc 64 NIL_64    0.028
953 H1DT 7.547 27.391 -15.171 hc 64 NIL_64    0.028
954 H1DU -1.253 25.405 -18.715 ha 64 NIL_64    0.063
955 H1DV -1.310 22.556 -15.605 ha 64 NIL_64    0.063
956 H1DW 6.778 25.056 -14.372 h1 64 NIL_64    0.047
957 H1DX 8.015 25.117 -13.167 h1 64 NIL_64    0.047
958 H1DY 1.058 25.002 -19.020 ha 64 NIL_64    0.063
959 H1DZ 1.015 22.214 -15.890 ha 64 NIL_64    0.063
960 H1E0 4.068 28.533 -13.976 h1 64 NIL_64    0.050
961 H1E1 5.849 28.518 -14.096 h1 64 NIL_64    0.050
962 H1E2 2.926 22.343 -17.554 h1 64 NIL_64    0.052
963 H1E3 2.978 23.723 -18.639 h1 64 NIL_64    0.052
964 H1E4 3.297 25.501 -13.856 hc 64 NIL_64    0.032
965 H1E5 4.784 24.596 -13.783 hc 64 NIL_64    0.032
966 H1E6 5.503 25.485 -15.887 h1 64 NIL_64    0.061
967 H1E7 4.326 23.615 -16.317 hn 64 NIL_64    0.150
968 C152 -4.405 36.800 6.444 c3 65 NIL_65   -0.064
969 C153 -3.143 36.436 5.641 c3 65 NIL_65   -0.040
970 C154 -2.201 35.466 6.393 c3 65 NIL_65    0.015
971 H1FQ -1.304 35.337 5.793 h1 65 NIL_65    0.047
972 H1FR -1.850 35.985 7.289 h1 65 NIL_65    0.047
973 H1FS -3.420 36.031 4.668 hc 65 NIL_65    0.028
974 H1FT -2.589 37.355 5.438 hc 65 NIL_65    0.028
975 H1FU -5.018 35.916 6.629 hc 65 NIL_65    0.023
976 H1FV -5.004 37.525 5.890 hc 65 NIL_65    0.023
977 H1FW -4.136 37.249 7.404 hc 65 NIL_65    0.023
978 C195 -6.924 36.889 15.353 c3 66 NIL_66   -0.052
979 C196 -5.730 36.410 16.205 c3 66 NIL_66   -0.004
980 H1KZ -4.821 36.433 15.597 h1 66 NIL_66    0.043
981 H1L0 -5.618 37.129 17.017 h1 66 NIL_66    0.043
982 H1L1 -7.830 36.942 15.961 hc 66 NIL_66    0.024
983 H1L2 -7.110 36.225 14.506 hc 66 NIL_66    0.024
984 H1L3 -6.720 37.887 14.959 hc 66 NIL_66    0.024
985 C14E -2.117 21.943 5.917 c 67 NIL_67    0.510
986 C14F -2.815 23.209 5.412 c3 67 NIL_67    0.131
987 O09A -1.515 21.193 5.172 o 67 NIL_67   -0.547
988 C14G -1.751 24.078 4.671 c3 67 NIL_67    0.007
989 C14H -3.762 22.731 4.274 c3 67 NIL_67    0.046
990 N09S -3.531 23.987 6.479 n 67 NIL_67   -0.284
991 C14I -2.305 24.277 3.247 c3 67 NIL_67    0.105
992 N09T -3.151 23.128 3.001 n 67 NIL_67   -0.285
993 C14J -1.261 24.530 2.183 c 67 NIL_67    0.510
994 O09B -0.244 25.134 2.464 o 67 NIL_67   -0.549
995 H1F5 -2.953 25.155 3.221 h1 67 NIL_67    0.061
996 H1F6 -3.911 21.647 4.299 h1 67 NIL_67    0.050
997 H1F7 -4.739 23.210 4.344 h1 67 NIL_67    0.050
998 H1F8 -0.789 23.562 4.615 hc 67 NIL_67    0.032
999 H1F9 -1.568 25.036 5.163 hc 67 NIL_67    0.032
1000 C18A -2.421 32.231 -0.170 c3 68 NIL_68    0.046
1001 C18B -2.002 33.163 1.013 c3 68 NIL_68    0.131
1002 N0AX -2.173 32.996 -1.396 n 68 NIL_68   -0.285
1003 C18C -2.061 34.575 0.361 c3 68 NIL_68    0.007
1004 C18D -3.091 33.147 2.102 c 68 NIL_68    0.510
1005 N0AY -0.614 32.880 1.543 n 68 NIL_68   -0.284
1006 C18E -2.553 34.357 -1.082 c3 68 NIL_68    0.105
1007 O0AC -4.275 33.041 1.844 o 68 NIL_68   -0.544
1008 C18F -2.065 35.427 -2.026 c 68 NIL_68    0.510
1009 O0AD -2.281 36.594 -1.754 o 68 NIL_68   -0.549
1010 H1JH -3.646 34.403 -1.105 h1 68 NIL_68    0.061
1011 H1JI -1.075 35.044 0.359 hc 68 NIL_68    0.032
1012 H1JJ -2.735 35.256 0.887 hc 68 NIL_68    0.032
1013 H1JK -1.912 31.267 -0.158 h1 68 NIL_68    0.050
1014 H1JL -3.492 32.020 -0.149 h1 68 NIL_68    0.050
1015 C14W 5.106 28.260 -7.434 c 69 NIL_69    0.510
1016 C14X 4.722 27.266 -8.542 c3 69 NIL_69    0.131
1017 O09G 5.306 29.444 -7.635 o 69 NIL_69   -0.544
1018 C14Y 6.077 26.882 -9.206 c3 69 NIL_69    0.007
1019 C14Z 3.967 28.009 -9.689 c3 69 NIL_69    0.046
1020 N09Y 3.997 26.041 -8.027 n 69 NIL_69   -0.284
1021 C150 6.058 27.550 -10.589 c3 69 NIL_69    0.105
1022 N09Z 4.651 27.625 -10.925 n 69 NIL_69   -0.285
1023 C151 6.956 26.855 -11.585 c 69 NIL_69    0.510
1024 O09H 8.123 26.664 -11.299 o 69 NIL_69   -0.549
1025 H1FL 6.426 28.577 -10.501 h1 69 NIL_69    0.061
1026 H1FM 2.897 27.803 -9.711 h1 69 NIL_69    0.050
1027 H1FN 4.067 29.094 -9.605 h1 69 NIL_69    0.050
1028 H1FO 6.176 25.802 -9.303 hc 69 NIL_69    0.032
1029 H1FP 6.944 27.222 -8.634 hc 69 NIL_69    0.032
1030 C193 -2.848 19.088 17.373 c3 70 NIL_70   -0.004
1031 C194 -2.938 17.971 16.315 c3 70 NIL_70   -0.052
1032 H1KU -3.000 16.997 16.805 hc 70 NIL_70    0.024
1033 H1KV -2.061 17.967 15.664 hc 70 NIL_70    0.024
1034 H1KW -3.830 18.101 15.699 hc 70 NIL_70    0.024
1035 H1KX -3.729 19.019 18.016 h1 70 NIL_70    0.043
1036 H1KY -1.960 18.932 17.993 h1 70 NIL_70    0.043
1037 C18Y -7.515 27.161 -4.974 c3 71 NIL_71   -0.064
1038 C18Z -6.533 26.595 -3.931 c3 71 NIL_71   -0.040
1039 C190 -6.440 25.052 -4.024 c3 71 NIL_71    0.015
1040 H1KL -7.402 24.628 -3.720 h1 71 NIL_71    0.047
1041 H1KM -6.312 24.780 -5.071 h1 71 NIL_71    0.047
1042 H1KN -5.555 27.050 -4.089 hc 71 NIL_71    0.028
1043 H1KO -6.862 26.890 -2.932 hc 71 NIL_71    0.028
1044 H1KP -8.515 26.742 -4.840 hc 71 NIL_71    0.023
1045 H1KQ -7.178 26.934 -5.989 hc 71 NIL_71    0.023
1046 H1KR -7.584 28.245 -4.872 hc 71 NIL_71    0.023
1047 C18N 1.444 32.201 -9.030 c3 72 NIL_72    0.015
1048 C18O 2.038 33.300 -9.945 c3 72 NIL_72   -0.040
1049 C18P 2.841 34.351 -9.155 c3 72 NIL_72   -0.064
1050 H1K0 3.314 35.056 -9.843 hc 72 NIL_72    0.023
1051 H1K1 3.625 33.871 -8.565 hc 72 NIL_72    0.023
1052 H1K2 2.194 34.914 -8.479 hc 72 NIL_72    0.023
1053 H1K3 1.259 33.787 -10.532 hc 72 NIL_72    0.028
1054 H1K4 2.704 32.823 -10.666 hc 72 NIL_72    0.028
1055 H1K5 1.014 31.429 -9.663 h1 72 NIL_72    0.047
1056 H1K6 2.283 31.712 -8.532 h1 72 NIL_72    0.047
1057 C181 4.694 23.177 -9.057 c3 73 NIL_73   -0.064
1058 C182 3.955 24.249 -9.881 c3 73 NIL_73   -0.040
1059 C183 3.174 25.247 -8.992 c3 73 NIL_73    0.015
1060 H1IW 2.581 25.888 -9.638 h1 73 NIL_73    0.047
1061 H1IX 2.436 24.669 -8.430 h1 73 NIL_73    0.047
1062 H1IY 4.659 24.771 -10.530 hc 73 NIL_73    0.028
1063 H1IZ 3.245 23.753 -10.545 hc 73 NIL_73    0.028
1064 H1J0 5.154 22.444 -9.723 hc 73 NIL_73    0.023
1065 H1J1 3.998 22.650 -8.400 hc 73 NIL_73    0.023
1066 H1J2 5.479 23.623 -8.442 hc 73 NIL_73    0.023
1067 O09K 6.580 32.600 17.808 o 74 NIL_74   -0.545
1068 C15B 5.663 32.030 17.246 c 74 NIL_74    0.510
1069 C15C 5.849 30.705 16.485 c3 74 NIL_74    0.128
1070 C15D 5.973 29.563 17.516 c3 74 NIL_74    0.003
1071 C15E 7.274 30.706 15.857 c3 74 NIL_74    0.029
1072 N0A2 4.733 30.414 15.517 n 74 NIL_74   -0.275
1073 C15F 7.436 29.574 18.023 c3 74 NIL_74    0.090
1074 N0A3 8.198 30.199 16.899 n3 74 NIL_74   -0.290
1075 C15G 7.896 28.247 18.640 c 74 NIL_74    0.510
1076 O09L 9.065 27.960 18.816 o 74 NIL_74   -0.557
1077 H1G2 7.469 30.282 18.857 h1 74 NIL_74    0.057
1078 H1G3 7.338 30.046 14.998 h1 74 NIL_74    0.046
1079 H1G4 7.569 31.707 15.528 h1 74 NIL_74    0.046
1080 H1G5 5.776 28.611 17.020 hc 74 NIL_74    0.032
1081 H1G6 5.253 29.668 18.332 hc 74 NIL_74    0.032
1082 C14K -3.885 24.332 0.086 c3 75 NIL_75    0.007
1083 C14L -4.640 23.539 -0.989 c3 75 NIL_75    0.105
1084 C14M -2.794 23.331 0.574 c3 75 NIL_75    0.131
1085 N09U -3.582 22.847 -1.694 n 75 NIL_75   -0.285
1086 C14N -5.595 24.355 -1.826 c 75 NIL_75    0.510
1087 C14O -2.707 22.324 -0.632 c3 75 NIL_75    0.046
1088 C14P -3.451 22.636 1.781 c 75 NIL_75    0.510
1089 N09V -1.507 24.047 0.929 n 75 NIL_75   -0.284
1090 O09C -6.569 24.855 -1.295 o 75 NIL_75   -0.549
1091 O09D -4.239 21.714 1.676 o 75 NIL_75   -0.544
1092 H1FA -1.700 22.161 -1.002 h1 75 NIL_75    0.050
1093 H1FB -3.079 21.336 -0.352 h1 75 NIL_75    0.050
1094 H1FC -5.261 22.783 -0.502 h1 75 NIL_75    0.061
1095 H1FD -3.447 25.231 -0.352 hc 75 NIL_75    0.032
1096 H1FE -4.553 24.654 0.889 hc 75 NIL_75    0.032
1097 C15T 9.499 29.661 16.418 c3 76 NIL_76   -0.004
1098 C15U 9.374 28.344 15.619 c3 76 NIL_76   -0.052
1099 H1GH 10.368 27.980 15.355 hc 76 NIL_76    0.024
1100 H1GI 8.818 28.491 14.691 hc 76 NIL_76    0.024
1101 H1GJ 8.877 27.565 16.197 hc 76 NIL_76    0.024
1102 H1GK 10.172 29.516 17.264 h1 76 NIL_76    0.043
1103 H1GL 9.961 30.410 15.770 h1 76 NIL_76    0.043
1104 C18Q 1.194 33.447 -0.186 c3 77 NIL_77   -0.040
1105 C18R 0.419 32.367 0.593 c3 77 NIL_77    0.015
1106 C18S 2.338 32.807 -0.995 c3 77 NIL_77   -0.064
1107 H1K7 2.869 33.567 -1.573 hc 77 NIL_77    0.023
1108 H1K8 1.946 32.058 -1.688 hc 77 NIL_77    0.023
1109 H1K9 3.055 32.321 -0.329 hc 77 NIL_77    0.023
1110 H1KA 0.009 31.656 -0.118 h1 77 NIL_77    0.047
1111 H1KB 1.153 31.799 1.171 h1 77 NIL_77    0.047
1112 H1KC 1.607 34.182 0.509 hc 77 NIL_77    0.028
1113 H1KD 0.529 33.970 -0.873 hc 77 NIL_77    0.028
1114 O09Q -4.262 36.547 18.870 o 78 NIL_78   -0.557
1115 C15V -3.912 35.486 18.391 c 78 NIL_78    0.510
1116 C15W -4.886 34.528 17.699 c3 78 NIL_78    0.090
1117 N0A8 -5.925 35.038 16.754 n3 78 NIL_78   -0.290
1118 C15X -4.223 33.367 16.931 c3 78 NIL_78    0.003
1119 C15Y -6.100 34.010 15.686 c3 78 NIL_78    0.029
1120 C15Z -5.379 32.712 16.148 c3 78 NIL_78    0.128
1121 N0A9 -4.836 31.793 15.088 n 78 NIL_78   -0.275
1122 C160 -6.233 31.921 17.153 c 78 NIL_78    0.510
1123 O09R -7.226 32.372 17.692 o 78 NIL_78   -0.545
1124 H1GM -5.609 34.400 14.792 h1 78 NIL_78    0.046
1125 H1GN -7.156 33.836 15.465 h1 78 NIL_78    0.046
1126 H1GO -3.478 33.764 16.237 hc 78 NIL_78    0.032
1127 H1GP -3.726 32.667 17.607 hc 78 NIL_78    0.032
1128 H1GQ -5.426 34.074 18.534 h1 78 NIL_78    0.057
1129 C155 -1.202 32.895 5.203 c3 79 NIL_79    0.007
1130 C156 -1.326 33.541 3.810 c3 79 NIL_79    0.105
1131 C157 -2.625 33.001 5.825 c3 79 NIL_79    0.131
1132 N0A0 -2.689 33.275 3.387 n 79 NIL_79   -0.285
1133 C158 -0.251 33.113 2.837 c 79 NIL_79    0.510
1134 C159 -3.546 33.184 4.581 c3 79 NIL_79    0.046
1135 N0A1 -2.756 34.139 6.808 n 79 NIL_79   -0.284
1136 C15A -2.990 31.626 6.404 c 79 NIL_79    0.510
1137 O09I 0.896 32.983 3.223 o 79 NIL_79   -0.549
1138 O09J -2.967 30.608 5.737 o 79 NIL_79   -0.547
1139 H1FX -4.226 32.335 4.458 h1 79 NIL_79    0.050
1140 H1FY -4.164 34.077 4.673 h1 79 NIL_79    0.050
1141 H1FZ -1.226 34.625 3.885 h1 79 NIL_79    0.061
1142 H1G0 -0.908 31.851 5.068 hc 79 NIL_79    0.032
1143 H1G1 -0.429 33.364 5.816 hc 79 NIL_79    0.032
1144 C19A 9.286 28.882 5.483 c3 80 NIL_80   -0.064
1145 C19B 8.927 27.464 5.962 c3 80 NIL_80   -0.040
1146 C19C 7.419 27.124 5.839 c3 80 NIL_80    0.015
1147 H1LB 7.219 27.028 4.775 h1 80 NIL_80    0.047
1148 H1LC 7.253 26.141 6.290 h1 80 NIL_80    0.047
1149 H1LD 9.490 26.744 5.362 hc 80 NIL_80    0.028
1150 H1LE 9.267 27.337 6.991 hc 80 NIL_80    0.028
1151 H1LF 8.778 29.636 6.089 hc 80 NIL_80    0.023
1152 H1LG 9.011 29.016 4.436 hc 80 NIL_80    0.023
1153 H1LH 10.362 29.046 5.567 hc 80 NIL_80    0.023
1154 H1IQ 3.538 22.474 16.851 hn 81 NIL_81    0.151
1155 N0AV 3.867 23.275 17.369 n 81 NIL_81   -0.298
1156 C17V 2.938 23.859 18.361 c3 81 NIL_81    0.129
1157 C17W 2.024 24.894 17.666 c3 81 NIL_81    0.006
1158 C17X 1.946 22.770 18.827 c3 81 NIL_81    0.045
1159 C17Y 3.673 24.532 19.524 c 81 NIL_81    0.510
1160 C17Z 0.736 24.137 17.283 c3 81 NIL_81    0.105
1161 N0AW 0.819 22.812 17.894 n 81 NIL_81   -0.285
1162 O0AA 3.193 24.645 20.636 o 81 NIL_81   -0.545
1163 C180 0.418 24.039 15.797 c 81 NIL_81    0.510
1164 O0AB 0.853 24.844 14.995 o 81 NIL_81   -0.549
1165 H1IR -0.111 24.662 17.732 h1 81 NIL_81    0.061
1166 H1IS 2.417 21.782 18.827 h1 81 NIL_81    0.050
1167 H1IT 1.558 22.986 19.825 h1 81 NIL_81    0.050
1168 H1IU 2.519 25.366 16.815 hc 81 NIL_81    0.032
1169 H1IV 1.756 25.690 18.366 hc 81 NIL_81    0.032
1170 C15N 5.712 28.473 -5.009 c3 82 NIL_82    0.046
1171 C15O 5.622 27.516 -3.786 c3 82 NIL_82    0.131
1172 N0A6 5.273 27.741 -6.201 n 82 NIL_82   -0.285
1173 C15P 4.859 26.281 -4.358 c3 82 NIL_82    0.007
1174 N0A7 6.984 27.143 -3.240 n 82 NIL_82   -0.284
1175 C15Q 4.714 28.263 -2.793 c 82 NIL_82    0.510
1176 C15R 5.121 26.336 -5.873 c3 82 NIL_82    0.105
1177 O09O 3.545 28.497 -3.044 o 82 NIL_82   -0.544
1178 C15S 4.134 25.595 -6.745 c 82 NIL_82    0.510
1179 O09P 3.519 24.638 -6.312 o 82 NIL_82   -0.549
1180 H1GC 6.076 25.865 -6.107 h1 82 NIL_82    0.061
1181 H1GD 3.783 26.356 -4.188 hc 82 NIL_82    0.032
1182 H1GE 5.186 25.336 -3.916 hc 82 NIL_82    0.032
1183 H1GF 5.051 29.337 -4.891 h1 82 NIL_82    0.050
1184 H1GG 6.727 28.851 -5.143 h1 82 NIL_82    0.050
1185 C18T -6.262 25.454 17.666 c3 83 NIL_83    0.104
1186 N0B1 -5.718 26.063 18.881 n 83 NIL_83   -0.286
1187 C18U -6.779 24.072 18.088 c3 83 NIL_83   -0.005
1188 C18V -7.268 26.339 16.956 c 83 NIL_83    0.510
1189 C18W -5.523 25.019 19.898 c3 83 NIL_83    0.034
1190 C18X -5.805 23.668 19.208 c3 83 NIL_83    0.040
1191 O0AF -8.173 25.901 16.275 o 83 NIL_83   -0.552
1192 N0B2 -4.552 23.110 18.681 n 83 NIL_83   -0.310
1193 H1KE -6.257 22.953 19.900 h1 83 NIL_83    0.052
1194 H1KF -6.245 25.179 20.704 h1 83 NIL_83    0.049
1195 H1KG -4.507 25.058 20.304 h1 83 NIL_83    0.049
1196 H1KH -6.796 23.366 17.255 hc 83 NIL_83    0.031
1197 H1KI -7.789 24.157 18.500 hc 83 NIL_83    0.031
1198 H1KJ -5.427 25.324 16.971 h1 83 NIL_83    0.061
1199 H1KK -3.728 23.681 18.794 hn 83 NIL_83    0.150
1200 C191 -3.599 32.750 13.117 c 84 NIL_84    0.510
1201 C192 -4.905 32.203 13.661 c3 84 NIL_84    0.092
1202 O0AG -2.698 33.156 13.826 o 84 NIL_84   -0.557
1203 H1KS -5.697 32.923 13.459 h1 84 NIL_84    0.057
1204 H1KT -5.146 31.320 13.062 h1 84 NIL_84    0.057
1205 N0AD -5.374 24.452 -3.167 n 85 NIL_85   -0.284
1206 C16I -4.101 24.000 -3.844 c3 85 NIL_85    0.131
1207 C16J -3.289 25.239 -4.329 c3 85 NIL_85    0.007
1208 C16K -4.324 23.213 -5.173 c3 85 NIL_85    0.046
1209 C16L -3.195 23.118 -2.964 c 85 NIL_85    0.510
1210 C16M -3.741 25.424 -5.787 c3 85 NIL_85    0.105
1211 N0AE -3.880 24.072 -6.280 n 85 NIL_85   -0.285
1212 O09V -2.142 22.674 -3.385 o 85 NIL_85   -0.544
1213 C16N -2.935 26.368 -6.648 c 85 NIL_85    0.510
1214 O09W -2.538 27.418 -6.179 o 85 NIL_85   -0.549
1215 H1HA -4.732 25.864 -5.803 h1 85 NIL_85    0.061
1216 H1HB -3.746 22.284 -5.196 h1 85 NIL_85    0.050
1217 H1HC -5.373 22.946 -5.310 h1 85 NIL_85    0.050
1218 H1HD -2.214 25.040 -4.320 hc 85 NIL_85    0.032
1219 H1HE -3.462 26.124 -3.716 hc 85 NIL_85    0.032
1220 N0AP -7.115 27.668 17.143 n 86 NIL_86   -0.298
1221 C17F -5.992 28.281 17.883 c3 86 NIL_86    0.129
1222 H1I8 -7.776 28.297 16.712 hn 86 NIL_86    0.151
1223 C17G -4.816 28.526 16.903 c3 86 NIL_86    0.006
1224 C17H -6.413 29.702 18.340 c3 86 NIL_86    0.045
1225 C17I -5.508 27.392 19.037 c 86 NIL_86    0.510
1226 C17J -4.634 30.050 16.804 c3 86 NIL_86    0.105
1227 N0AQ -5.824 30.653 17.394 n 86 NIL_86   -0.285
1228 O0A5 -4.979 27.832 20.040 o 86 NIL_86   -0.545
1229 C17K -4.346 30.560 15.402 c 86 NIL_86    0.510
1230 O0A6 -3.738 29.882 14.594 o 86 NIL_86   -0.549
1231 H1I9 -3.780 30.342 17.422 h1 86 NIL_86    0.061
1232 H1IA -7.502 29.805 18.363 h1 86 NIL_86    0.050
1233 H1IB -6.015 29.934 19.331 h1 86 NIL_86    0.050
1234 H1IC -5.047 28.100 15.922 hc 86 NIL_86    0.032
1235 H1ID -3.888 28.062 17.248 hc 86 NIL_86    0.032
1236 C16U 5.148 29.087 9.836 c3 87 NIL_87   -0.010
1237 C16V 5.589 29.395 8.383 c3 87 NIL_87    0.101
1238 C16W 6.243 29.442 10.865 c3 87 NIL_87    0.013
1239 C16X 6.513 28.334 7.797 c 87 NIL_87    0.510
1240 N0AH 4.426 29.705 7.557 n 87 NIL_87   -0.302
1241 N0AI 5.828 29.117 12.232 n 87 NIL_87   -0.314
1242 O09Z 7.286 27.725 8.513 o 87 NIL_87   -0.550
1243 H1HK 7.160 28.887 10.658 h1 87 NIL_87    0.047
1244 H1HL 6.470 30.508 10.793 h1 87 NIL_87    0.047
1245 H1HM 6.181 30.313 8.399 h1 87 NIL_87    0.061
1246 H1HN 4.871 28.034 9.924 hc 87 NIL_87    0.031
1247 H1HO 4.256 29.673 10.080 hc 87 NIL_87    0.031
1248 H1HP 5.834 28.143 12.492 hn 87 NIL_87    0.149
1249 H1HQ 3.709 30.264 7.993 hn 87 NIL_87    0.150
1250 C197 1.345 29.080 0.858 c3 88 NIL_88   -0.064
1251 C198 1.416 27.546 0.778 c3 88 NIL_88   -0.040
1252 C199 2.784 26.967 0.337 c3 88 NIL_88    0.015
1253 H1L4 2.711 25.875 0.349 h1 88 NIL_88    0.047
1254 H1L5 2.993 27.234 -0.698 h1 88 NIL_88    0.047
1255 H1L6 1.161 27.147 1.760 hc 88 NIL_88    0.028
1256 H1L7 0.647 27.207 0.090 hc 88 NIL_88    0.028
1257 H1L8 1.411 29.522 -0.137 hc 88 NIL_88    0.023
1258 H1L9 2.144 29.479 1.486 hc 88 NIL_88    0.023
1259 H1LA 0.390 29.382 1.295 hc 88 NIL_88    0.023
1260 C16Y -0.399 34.911 19.561 c3 89 NIL_89    0.034
1261 C16Z -1.527 35.838 19.068 c3 89 NIL_89    0.040
1262 N0AJ 0.558 34.774 18.457 n 89 NIL_89   -0.286
1263 C170 -0.827 36.662 17.976 c3 89 NIL_89   -0.005
1264 N0AK -2.634 35.055 18.504 n 89 NIL_89   -0.310
1265 C171 0.152 35.652 17.358 c3 89 NIL_89    0.104
1266 C172 1.323 36.256 16.606 c 89 NIL_89    0.510
1267 O0A0 1.250 37.309 16.005 o 89 NIL_89   -0.552
1268 H1HR -0.386 35.033 16.634 h1 89 NIL_89    0.061
1269 H1HS -1.524 37.068 17.238 hc 89 NIL_89    0.031
1270 H1HT -0.276 37.487 18.436 hc 89 NIL_89    0.031
1271 H1HU -1.893 36.475 19.879 h1 89 NIL_89    0.052
1272 H1HV 0.115 35.376 20.407 h1 89 NIL_89    0.049
1273 H1HW -0.786 33.933 19.861 h1 89 NIL_89    0.049
1274 H1HX -2.399 34.149 18.127 hn 89 NIL_89    0.150
1275 C19D 0.089 27.382 -7.753 c3 90 NIL_90   -0.064
1276 C19E -0.685 27.188 -9.072 c3 90 NIL_90   -0.040
1277 C19F -2.227 27.050 -8.917 c3 90 NIL_90    0.015
1278 H1LI -2.627 28.024 -8.622 h1 90 NIL_90    0.047
1279 H1LJ -2.636 26.849 -9.909 h1 90 NIL_90    0.047
1280 H1LK -0.490 28.052 -9.711 hc 90 NIL_90    0.028
1281 H1LL -0.269 26.333 -9.602 hc 90 NIL_90    0.028
1282 H1LM 1.158 27.460 -7.965 hc 90 NIL_90    0.023
1283 H1LN -0.057 26.533 -7.081 hc 90 NIL_90    0.023
1284 H1LO -0.227 28.295 -7.245 hc 90 NIL_90    0.023
1285 C05A -2.421 3.652 -0.170 c3 91 NIL_91    0.046
1286 C05B -2.002 4.584 1.013 c3 91 NIL_91    0.131
1287 N01F -2.173 4.417 -1.396 n 91 NIL_91   -0.285
1288 C05C -2.061 5.996 0.361 c3 91 NIL_91    0.007
1289 C05D -3.091 4.568 2.102 c 91 NIL_91    0.510
1290 N01G -0.614 4.301 1.543 n 91 NIL_91   -0.284
1291 C05E -2.553 5.778 -1.082 c3 91 NIL_91    0.105
1292 O01C -4.275 4.462 1.844 o 91 NIL_91   -0.544
1293 C05F -2.065 6.848 -2.026 c 91 NIL_91    0.510
1294 O01D -2.281 8.015 -1.754 o 91 NIL_91   -0.549
1295 H05Z -3.646 5.824 -1.105 h1 91 NIL_91    0.061
1296 H060 -1.075 6.465 0.359 hc 91 NIL_91    0.032
1297 H061 -2.735 6.677 0.887 hc 91 NIL_91    0.032
1298 H062 -1.912 2.688 -0.158 h1 91 NIL_91    0.050
1299 H063 -3.492 3.441 -0.149 h1 91 NIL_91    0.050
1300 C013 5.537 -3.626 17.925 c3 92 NIL_92    0.104
1301 N006 4.917 -3.592 19.250 n 92 NIL_92   -0.286
1302 C014 7.048 -3.492 18.175 c3 92 NIL_92   -0.005
1303 C015 5.097 -4.814 17.092 c 92 NIL_92    0.510
1304 C016 5.883 -3.066 20.223 c3 92 NIL_92    0.034
1305 C017 7.098 -2.579 19.413 c3 92 NIL_92    0.040
1306 O007 5.796 -5.322 16.239 o 92 NIL_92   -0.552
1307 N007 6.913 -1.174 19.024 n 92 NIL_92   -0.310
1308 H01B 8.030 -2.697 19.975 h1 92 NIL_92    0.052
1309 H01C 6.186 -3.881 20.885 h1 92 NIL_92    0.049
1310 H01D 5.442 -2.257 20.813 h1 92 NIL_92    0.049
1311 H01E 7.580 -3.073 17.315 hc 92 NIL_92    0.031
1312 H01F 7.480 -4.465 18.420 hc 92 NIL_92    0.031
1313 H01G 5.190 -2.738 17.387 h1 92 NIL_92    0.061
1314 H01H 5.959 -0.868 18.902 hn 92 NIL_92    0.150
1315 C06D 0.089 -1.197 -7.753 c3 93 NIL_93   -0.064
1316 C06E -0.685 -1.391 -9.072 c3 93 NIL_93   -0.040
1317 C06F -2.227 -1.529 -8.917 c3 93 NIL_93    0.015
1318 H080 -2.627 -0.555 -8.622 h1 93 NIL_93    0.047
1319 H081 -2.636 -1.730 -9.909 h1 93 NIL_93    0.047
1320 H082 -0.490 -0.527 -9.711 hc 93 NIL_93    0.028
1321 H083 -0.269 -2.246 -9.602 hc 93 NIL_93    0.028
1322 H084 1.158 -1.119 -7.965 hc 93 NIL_93    0.023
1323 H085 -0.057 -2.046 -7.081 hc 93 NIL_93    0.023
1324 H086 -0.227 -0.284 -7.245 hc 93 NIL_93    0.023
1325 O00M 0.079 -7.860 18.159 o 94 NIL_94   -0.545
1326 C02H -0.003 -6.793 17.579 c 94 NIL_94    0.510
1327 C02I -0.983 -6.519 16.425 c3 94 NIL_94    0.128
1328 C02J -2.240 -5.861 17.032 c3 94 NIL_94    0.003
1329 C02K -1.607 -7.854 15.913 c3 94 NIL_94    0.029
1330 N00M -0.342 -5.609 15.412 n 94 NIL_94   -0.275
1331 C02L -2.981 -7.026 17.709 c3 94 NIL_94    0.090
1332 N00N -2.798 -8.142 16.757 n3 94 NIL_94   -0.290
1333 C02M -4.410 -6.679 18.096 c 94 NIL_94    0.510
1334 O00N -5.350 -7.426 17.902 o 94 NIL_94   -0.557
1335 H02P -2.461 -7.260 18.643 h1 94 NIL_94    0.057
1336 H02Q -1.980 -7.753 14.893 h1 94 NIL_94    0.046
1337 H02R -0.874 -8.665 15.937 h1 94 NIL_94    0.046
1338 H02S -2.866 -5.432 16.246 hc 94 NIL_94    0.032
1339 H02T -1.999 -5.072 17.747 hc 94 NIL_94    0.032
1340 C003 3.446 -3.136 -16.369 c 95 NIL_95    0.510
1341 C004 4.594 -2.619 -15.513 c3 95 NIL_95    0.105
1342 O000 2.521 -2.432 -16.727 o 95 NIL_95   -0.553
1343 N000 3.538 -4.451 -16.683 n 95 NIL_95   -0.310
1344 N001 4.806 -1.155 -15.566 n 95 NIL_95   -0.283
1345 C005 4.372 -3.002 -14.032 c3 95 NIL_95    0.007
1346 C006 2.684 -5.174 -17.637 c3 95 NIL_95    0.036
1347 C007 4.943 -0.666 -14.191 c3 95 NIL_95    0.046
1348 C008 5.005 -1.851 -13.202 c3 95 NIL_95    0.131
1349 C009 1.187 -4.990 -17.471 c2 95 NIL_95   -0.031
1350 N002 6.434 -2.116 -12.782 n 95 NIL_95   -0.284
1351 C00A 4.075 -1.432 -12.049 c 95 NIL_95    0.510
1352 C00B 0.502 -5.656 -16.538 c2 95 NIL_95   -0.057
1353 C00C 0.527 -4.136 -18.254 c2 95 NIL_95   -0.057
1354 C00D 7.328 -2.832 -13.742 c3 95 NIL_95    0.015
1355 O001 2.861 -1.468 -12.136 o 95 NIL_95   -0.544
1356 C00E -0.805 -5.443 -16.366 c2 95 NIL_95   -0.049
1357 C00F -0.776 -3.919 -18.082 c2 95 NIL_95   -0.049
1358 C00G 8.177 -1.904 -14.642 c3 95 NIL_95   -0.040
1359 C00H -1.465 -4.549 -17.120 c2 95 NIL_95    0.037
1360 C00I 8.968 -2.722 -15.683 c3 95 NIL_95   -0.064
1361 C00J -2.829 -4.164 -16.906 c 95 NIL_95    0.510
1362 O002 -3.461 -3.829 -17.892 o 95 NIL_95   -0.535
1363 H007 9.624 -3.445 -15.192 hc 95 NIL_95    0.023
1364 H008 9.585 -2.063 -16.298 hc 95 NIL_95    0.023
1365 H009 8.289 -3.266 -16.344 hc 95 NIL_95    0.023
1366 H00A 8.877 -1.332 -14.028 hc 95 NIL_95    0.028
1367 H00B 7.547 -1.188 -15.171 hc 95 NIL_95    0.028
1368 H00C -1.253 -3.174 -18.715 ha 95 NIL_95    0.063
1369 H00D -1.310 -6.023 -15.605 ha 95 NIL_95    0.063
1370 H00E 6.778 -3.523 -14.372 h1 95 NIL_95    0.047
1371 H00F 8.015 -3.462 -13.167 h1 95 NIL_95    0.047
1372 H00G 1.058 -3.577 -19.020 ha 95 NIL_95    0.063
1373 H00H 1.015 -6.365 -15.890 ha 95 NIL_95    0.063
1374 H00I 4.068 -0.046 -13.976 h1 95 NIL_95    0.050
1375 H00J 5.849 -0.061 -14.096 h1 95 NIL_95    0.050
1376 H00K 2.926 -6.236 -17.554 h1 95 NIL_95    0.052
1377 H00L 2.978 -4.856 -18.639 h1 95 NIL_95    0.052
1378 H00M 3.297 -3.078 -13.856 hc 95 NIL_95    0.032
1379 H00N 4.784 -3.983 -13.783 hc 95 NIL_95    0.032
1380 H00O 5.503 -3.094 -15.887 h1 95 NIL_95    0.061
1381 H00P 4.326 -4.964 -16.317 hn 95 NIL_95    0.150
1382 C05K -0.812 7.561 -4.000 c3 96 NIL_96    0.015
1383 C05L -1.777 8.090 -5.085 c3 96 NIL_96   -0.040
1384 C05M -1.121 9.221 -5.895 c3 96 NIL_96   -0.064
1385 H06B -1.828 9.617 -6.628 hc 96 NIL_96    0.023
1386 H06C -0.243 8.849 -6.428 hc 96 NIL_96    0.023
1387 H06D -0.811 10.039 -5.240 hc 96 NIL_96    0.023
1388 H06E -2.690 8.463 -4.613 hc 96 NIL_96    0.028
1389 H06F -2.067 7.295 -5.772 hc 96 NIL_96    0.028
1390 H06G 0.133 7.266 -4.449 h1 96 NIL_96    0.047
1391 H06H -0.547 8.403 -3.352 h1 96 NIL_96    0.047
1392 C05Y -7.515 -1.418 -4.974 c3 97 NIL_97   -0.064
1393 C05Z -6.533 -1.984 -3.931 c3 97 NIL_97   -0.040
1394 C060 -6.440 -3.527 -4.024 c3 97 NIL_97    0.015
1395 H073 -7.402 -3.951 -3.720 h1 97 NIL_97    0.047
1396 H074 -6.312 -3.799 -5.071 h1 97 NIL_97    0.047
1397 H075 -5.555 -1.529 -4.089 hc 97 NIL_97    0.028
1398 H076 -6.862 -1.689 -2.932 hc 97 NIL_97    0.028
1399 H077 -8.515 -1.837 -4.840 hc 97 NIL_97    0.023
1400 H078 -7.178 -1.645 -5.989 hc 97 NIL_97    0.023
1401 H079 -7.584 -0.334 -4.872 hc 97 NIL_97    0.023
1402 O00Q -4.262 7.968 18.870 o 98 NIL_98   -0.557
1403 C02V -3.912 6.907 18.391 c 98 NIL_98    0.510
1404 C02W -4.886 5.949 17.699 c3 98 NIL_98    0.090
1405 N00Q -5.925 6.459 16.754 n3 98 NIL_98   -0.290
1406 C02X -4.223 4.788 16.931 c3 98 NIL_98    0.003
1407 C02Y -6.100 5.431 15.686 c3 98 NIL_98    0.029
1408 C02Z -5.379 4.133 16.148 c3 98 NIL_98    0.128
1409 N00R -4.836 3.214 15.088 n 98 NIL_98   -0.275
1410 C030 -6.233 3.342 17.153 c 98 NIL_98    0.510
1411 O00R -7.226 3.793 17.692 o 98 NIL_98   -0.545
1412 H034 -5.609 5.821 14.792 h1 98 NIL_98    0.046
1413 H035 -7.156 5.257 15.465 h1 98 NIL_98    0.046
1414 H036 -3.478 5.185 16.237 hc 98 NIL_98    0.032
1415 H037 -3.726 4.088 17.607 hc 98 NIL_98    0.032
1416 H038 -5.426 5.495 18.534 h1 98 NIL_98    0.057
1417 C01W 5.106 -0.319 -7.434 c 99 NIL_99    0.510
1418 C01X 4.722 -1.313 -8.542 c3 99 NIL_99    0.131
1419 O00G 5.306 0.865 -7.635 o 99 NIL_99   -0.544
1420 C01Y 6.077 -1.697 -9.206 c3 99 NIL_99    0.007
1421 C01Z 3.967 -0.570 -9.689 c3 99 NIL_99    0.046
1422 N00G 3.997 -2.538 -8.027 n 99 NIL_99   -0.284
1423 C020 6.058 -1.029 -10.589 c3 99 NIL_99    0.105
1424 N00H 4.651 -0.954 -10.925 n 99 NIL_99   -0.285
1425 C021 6.956 -1.724 -11.585 c 99 NIL_99    0.510
1426 O00H 8.123 -1.915 -11.299 o 99 NIL_99   -0.549
1427 H023 6.426 -0.002 -10.501 h1 99 NIL_99    0.061
1428 H024 2.897 -0.776 -9.711 h1 99 NIL_99    0.050
1429 H025 4.067 0.515 -9.605 h1 99 NIL_99    0.050
1430 H026 6.176 -2.777 -9.303 hc 99 NIL_99    0.032
1431 H027 6.944 -1.357 -8.634 hc 99 NIL_99    0.032
1432 C03O -1.115 5.785 -8.981 c3 100 NIL_100    0.007
1433 C03P -1.893 5.604 -10.293 c3 100 NIL_100    0.105
1434 C03Q -0.958 4.347 -8.404 c3 100 NIL_100    0.131
1435 N00X -1.476 4.304 -10.770 n 100 NIL_100   -0.285
1436 C03R -1.712 6.763 -11.235 c 100 NIL_100    0.510
1437 C03S -1.463 3.446 -9.580 c3 100 NIL_100    0.046
1438 N00Y 0.474 4.087 -7.988 n 100 NIL_100   -0.284
1439 C03T -1.950 4.297 -7.231 c 100 NIL_100    0.510
1440 O00X -1.978 7.883 -10.839 o 100 NIL_100   -0.549
1441 O00Y -3.135 4.051 -7.361 o 100 NIL_100   -0.544
1442 H03X -0.882 2.537 -9.721 h1 100 NIL_100    0.050
1443 H03Y -2.495 3.124 -9.426 h1 100 NIL_100    0.050
1444 H03Z -2.964 5.547 -10.077 h1 100 NIL_100    0.061
1445 H040 -0.143 6.238 -9.182 hc 100 NIL_100    0.032
1446 H041 -1.647 6.463 -8.308 hc 100 NIL_100    0.032
1447 C04L 6.134 -1.035 0.176 c3 101 NIL_101    0.007
1448 C04M 6.533 -0.276 -1.098 c3 101 NIL_101    0.105
1449 C04N 4.920 -0.246 0.747 c3 101 NIL_101    0.131
1450 N019 5.255 0.127 -1.637 n 101 NIL_101   -0.285
1451 C04O 7.432 -1.083 -2.002 c 101 NIL_101    0.510
1452 C04P 4.504 0.634 -0.484 c3 101 NIL_101    0.046
1453 C04Q 5.468 0.640 1.876 c 101 NIL_101    0.510
1454 N01A 3.879 -1.213 1.253 n 101 NIL_101   -0.284
1455 O017 8.538 -1.392 -1.599 o 101 NIL_101   -0.549
1456 O018 5.948 1.742 1.690 o 101 NIL_101   -0.544
1457 H04W 3.440 0.621 -0.686 h1 101 NIL_101    0.050
1458 H04X 4.780 1.682 -0.349 h1 101 NIL_101    0.050
1459 H04Y 7.089 0.627 -0.830 h1 101 NIL_101    0.061
1460 H04Z 5.836 -2.053 -0.091 hc 101 NIL_101    0.032
1461 H050 6.969 -1.098 0.880 hc 101 NIL_101    0.032
1462 C018 -1.221 5.040 -3.604 c3 102 NIL_102    0.131
1463 C019 0.165 4.755 -4.268 c3 102 NIL_102    0.007
1464 C01A -2.206 4.693 -4.758 c3 102 NIL_102    0.046
1465 N008 -1.392 6.477 -3.152 n 102 NIL_102   -0.284
1466 C01B -1.509 4.004 -2.500 c 102 NIL_102    0.510
1467 C01C -0.070 4.982 -5.775 c3 102 NIL_102    0.105
1468 N009 -1.450 4.602 -6.015 n 102 NIL_102   -0.285
1469 O008 -1.191 2.833 -2.606 o 102 NIL_102   -0.544
1470 C01D 0.919 4.342 -6.721 c 102 NIL_102    0.510
1471 O009 2.056 4.093 -6.362 o 102 NIL_102   -0.549
1472 H01I 0.003 6.043 -6.013 h1 102 NIL_102    0.061
1473 H01J -2.684 3.723 -4.591 h1 102 NIL_102    0.050
1474 H01K -2.991 5.449 -4.843 h1 102 NIL_102    0.050
1475 H01L 0.468 3.714 -4.136 hc 102 NIL_102    0.032
1476 H01M 0.970 5.375 -3.869 hc 102 NIL_102    0.032
1477 O00S 5.032 -1.037 -17.753 o 103 NIL_103   -0.535
1478 C031 4.811 -0.423 -16.724 c 103 NIL_103    0.510
1479 C032 4.506 0.978 -16.876 c2 103 NIL_103    0.037
1480 C033 4.057 1.411 -18.067 c2 103 NIL_103   -0.049
1481 C034 4.569 1.888 -15.885 c2 103 NIL_103   -0.049
1482 C035 3.657 2.669 -18.249 c2 103 NIL_103   -0.057
1483 C036 4.171 3.148 -16.070 c2 103 NIL_103   -0.057
1484 C037 3.695 3.550 -17.247 c2 103 NIL_103   -0.031
1485 C038 3.158 4.956 -17.442 c3 103 NIL_103    0.036
1486 N00S 2.069 5.335 -16.531 n 103 NIL_103   -0.310
1487 C039 0.980 4.584 -16.244 c 103 NIL_103    0.510
1488 C03A -0.027 5.274 -15.334 c3 103 NIL_103    0.105
1489 O00T 0.832 3.449 -16.659 o 103 NIL_103   -0.553
1490 N00T -1.413 4.773 -15.431 n 103 NIL_103   -0.283
1491 C03B 0.403 5.127 -13.858 c3 103 NIL_103    0.007
1492 C03C -1.959 4.662 -14.072 c3 103 NIL_103    0.046
1493 C03D -0.917 5.150 -13.033 c3 103 NIL_103    0.131
1494 N00U -1.257 6.525 -12.499 n 103 NIL_103   -0.284
1495 C03E -0.894 4.044 -11.959 c 103 NIL_103    0.510
1496 C03F -1.041 7.698 -13.404 c3 103 NIL_103    0.015
1497 O00U -0.412 2.944 -12.167 o 103 NIL_103   -0.544
1498 C03G -2.200 8.055 -14.364 c3 103 NIL_103   -0.040
1499 C03H -3.550 8.269 -13.651 c3 103 NIL_103   -0.064
1500 H039 -4.298 8.616 -14.362 hc 103 NIL_103    0.023
1501 H03A -3.455 9.019 -12.863 hc 103 NIL_103    0.023
1502 H03B -3.913 7.339 -13.208 hc 103 NIL_103    0.023
1503 H03C -2.317 7.291 -15.131 hc 103 NIL_103    0.028
1504 H03D -1.935 8.977 -14.886 hc 103 NIL_103    0.028
1505 H03E -0.131 7.585 -13.986 h1 103 NIL_103    0.047
1506 H03F -0.850 8.582 -12.791 h1 103 NIL_103    0.047
1507 H03G -2.209 3.612 -13.895 h1 103 NIL_103    0.050
1508 H03H -2.873 5.256 -13.989 h1 103 NIL_103    0.050
1509 H03I 0.922 4.171 -13.751 hc 103 NIL_103    0.032
1510 H03J 1.117 5.895 -13.551 hc 103 NIL_103    0.032
1511 H03K -0.041 6.328 -15.619 h1 103 NIL_103    0.061
1512 H03L 3.970 5.676 -17.316 h1 103 NIL_103    0.052
1513 H03M 2.776 5.064 -18.461 h1 103 NIL_103    0.052
1514 H03N 4.213 3.843 -15.234 ha 103 NIL_103    0.063
1515 H03O 3.270 2.965 -19.219 ha 103 NIL_103    0.063
1516 H03P 4.942 1.656 -14.901 ha 103 NIL_103    0.063
1517 H03Q 3.965 0.735 -18.914 ha 103 NIL_103    0.063
1518 H03R 2.115 6.263 -16.138 hn 103 NIL_103    0.150
1519 N017 -7.115 -0.911 17.143 n 104 NIL_104   -0.298
1520 C04F -5.992 -0.298 17.883 c3 104 NIL_104    0.129
1521 H04Q -7.776 -0.282 16.712 hn 104 NIL_104    0.151
1522 C04G -4.816 -0.053 16.903 c3 104 NIL_104    0.006
1523 C04H -6.413 1.123 18.340 c3 104 NIL_104    0.045
1524 C04I -5.508 -1.187 19.037 c 104 NIL_104    0.510
1525 C04J -4.634 1.471 16.804 c3 104 NIL_104    0.105
1526 N018 -5.824 2.074 17.394 n 104 NIL_104   -0.285
1527 O015 -4.979 -0.747 20.040 o 104 NIL_104   -0.545
1528 C04K -4.346 1.981 15.402 c 104 NIL_104    0.510
1529 O016 -3.738 1.303 14.594 o 104 NIL_104   -0.549
1530 H04R -3.780 1.763 17.422 h1 104 NIL_104    0.061
1531 H04S -7.502 1.226 18.363 h1 104 NIL_104    0.050
1532 H04T -6.015 1.355 19.331 h1 104 NIL_104    0.050
1533 H04U -5.047 -0.479 15.922 hc 104 NIL_104    0.032
1534 H04V -3.888 -0.517 17.248 hc 104 NIL_104    0.032
1535 C01Q 2.629 5.653 17.276 c3 105 NIL_105    0.129
1536 C01R 2.341 4.545 16.246 c3 105 NIL_105    0.006
1537 C01S 4.108 5.380 17.652 c3 105 NIL_105    0.045
1538 N00E 2.481 6.983 16.653 n 105 NIL_105   -0.298
1539 C01T 1.688 5.450 18.468 c 105 NIL_105    0.510
1540 C01U 3.232 3.382 16.696 c3 105 NIL_105    0.105
1541 N00F 4.432 4.007 17.234 n 105 NIL_105   -0.285
1542 H01X 3.292 7.363 16.188 hn 105 NIL_105    0.151
1543 O00E 1.933 4.689 19.386 o 105 NIL_105   -0.545
1544 C01V 3.480 2.359 15.613 c 105 NIL_105    0.510
1545 O00F 2.586 2.040 14.852 o 105 NIL_105   -0.549
1546 H01Y 2.747 2.848 17.518 h1 105 NIL_105    0.061
1547 H01Z 4.766 6.065 17.109 h1 105 NIL_105    0.050
1548 H020 4.279 5.499 18.725 h1 105 NIL_105    0.050
1549 H021 2.648 4.872 15.248 hc 105 NIL_105    0.032
1550 H022 1.285 4.266 16.207 hc 105 NIL_105    0.032
1551 C02N 5.712 -0.106 -5.009 c3 106 NIL_106    0.046
1552 C02O 5.622 -1.063 -3.786 c3 106 NIL_106    0.131
1553 N00O 5.273 -0.838 -6.201 n 106 NIL_106   -0.285
1554 C02P 4.859 -2.298 -4.358 c3 106 NIL_106    0.007
1555 N00P 6.984 -1.436 -3.240 n 106 NIL_106   -0.284
1556 C02Q 4.714 -0.316 -2.793 c 106 NIL_106    0.510
1557 C02R 5.121 -2.243 -5.873 c3 106 NIL_106    0.105
1558 O00O 3.545 -0.082 -3.044 o 106 NIL_106   -0.544
1559 C02S 4.134 -2.984 -6.745 c 106 NIL_106    0.510
1560 O00P 3.519 -3.941 -6.312 o 106 NIL_106   -0.549
1561 H02U 6.076 -2.714 -6.107 h1 106 NIL_106    0.061
1562 H02V 3.783 -2.223 -4.188 hc 106 NIL_106    0.032
1563 H02W 5.186 -3.243 -3.916 hc 106 NIL_106    0.032
1564 H02X 5.051 0.758 -4.891 h1 106 NIL_106    0.050
1565 H02Y 6.727 0.272 -5.143 h1 106 NIL_106    0.050
1566 C022 -4.405 8.221 6.444 c3 107 NIL_107   -0.064
1567 C023 -3.143 7.857 5.641 c3 107 NIL_107   -0.040
1568 C024 -2.201 6.887 6.393 c3 107 NIL_107    0.015
1569 H028 -1.304 6.758 5.793 h1 107 NIL_107    0.047
1570 H029 -1.850 7.406 7.289 h1 107 NIL_107    0.047
1571 H02A -3.420 7.452 4.668 hc 107 NIL_107    0.028
1572 H02B -2.589 8.776 5.438 hc 107 NIL_107    0.028
1573 H02C -5.018 7.337 6.629 hc 107 NIL_107    0.023
1574 H02D -5.004 8.946 5.890 hc 107 NIL_107    0.023
1575 H02E -4.136 8.670 7.404 hc 107 NIL_107    0.023
1576 C000 0.269 -3.135 -2.268 c3 108 NIL_108   -0.064
1577 C001 -0.869 -3.310 -1.244 c3 108 NIL_108   -0.040
1578 C002 -0.488 -4.331 -0.149 c3 108 NIL_108    0.015
1579 H000 -0.214 -5.281 -0.603 h1 108 NIL_108    0.047
1580 H001 0.441 -3.973 0.300 h1 108 NIL_108    0.047
1581 H002 -1.113 -2.348 -0.790 hc 108 NIL_108    0.028
1582 H003 -1.756 -3.636 -1.777 hc 108 NIL_108    0.028
1583 H004 1.174 -2.756 -1.793 hc 108 NIL_108    0.023
1584 H005 -0.028 -2.429 -3.046 hc 108 NIL_108    0.023
1585 H006 0.507 -4.090 -2.742 hc 108 NIL_108    0.023
1586 C02T 9.499 1.082 16.418 c3 109 NIL_109   -0.004
1587 C02U 9.374 -0.235 15.619 c3 109 NIL_109   -0.052
1588 H02Z 10.368 -0.599 15.355 hc 109 NIL_109    0.024
1589 H030 8.818 -0.088 14.691 hc 109 NIL_109    0.024
1590 H031 8.877 -1.014 16.197 hc 109 NIL_109    0.024
1591 H032 10.172 0.937 17.264 h1 109 NIL_109    0.043
1592 H033 9.961 1.831 15.770 h1 109 NIL_109    0.043
1593 O00K 6.580 4.021 17.808 o 110 NIL_110   -0.545
1594 C02B 5.663 3.451 17.246 c 110 NIL_110    0.510
1595 C02C 5.849 2.126 16.485 c3 110 NIL_110    0.128
1596 C02D 5.973 0.984 17.516 c3 110 NIL_110    0.003
1597 C02E 7.274 2.127 15.857 c3 110 NIL_110    0.029
1598 N00K 4.733 1.835 15.517 n 110 NIL_110   -0.275
1599 C02F 7.436 0.995 18.023 c3 110 NIL_110    0.090
1600 N00L 8.198 1.620 16.899 n3 110 NIL_110   -0.290
1601 C02G 7.896 -0.332 18.640 c 110 NIL_110    0.510
1602 O00L 9.065 -0.619 18.816 o 110 NIL_110   -0.557
1603 H02K 7.469 1.703 18.857 h1 110 NIL_110    0.057
1604 H02L 7.338 1.467 14.998 h1 110 NIL_110    0.046
1605 H02M 7.569 3.128 15.528 h1 110 NIL_110    0.046
1606 H02N 5.776 0.032 17.020 hc 110 NIL_110    0.032
1607 H02O 5.253 1.089 18.332 hc 110 NIL_110    0.032
1608 C063 -2.848 -9.491 17.373 c3 111 NIL_111   -0.004
1609 C064 -2.938 -10.608 16.315 c3 111 NIL_111   -0.052
1610 H07C -3.000 -11.582 16.805 hc 111 NIL_111    0.024
1611 H07D -2.061 -10.612 15.664 hc 111 NIL_111    0.024
1612 H07E -3.830 -10.478 15.699 hc 111 NIL_111    0.024
1613 H07F -3.729 -9.560 18.016 h1 111 NIL_111    0.043
1614 H07G -1.960 -9.647 17.993 h1 111 NIL_111    0.043
1615 C065 -6.924 8.310 15.353 c3 112 NIL_112   -0.052
1616 C066 -5.730 7.831 16.205 c3 112 NIL_112   -0.004
1617 H07H -4.821 7.854 15.597 h1 112 NIL_112    0.043
1618 H07I -5.618 8.550 17.017 h1 112 NIL_112    0.043
1619 H07J -7.830 8.363 15.961 hc 112 NIL_112    0.024
1620 H07K -7.110 7.646 14.506 hc 112 NIL_112    0.024
1621 H07L -6.720 9.308 14.959 hc 112 NIL_112    0.024
1622 C061 -3.599 4.171 13.117 c 113 NIL_113    0.510
1623 C062 -4.905 3.624 13.661 c3 113 NIL_113    0.092
1624 O01G -2.698 4.577 13.826 o 113 NIL_113   -0.557
1625 H07A -5.697 4.344 13.459 h1 113 NIL_113    0.057
1626 H07B -5.146 2.741 13.062 h1 113 NIL_113    0.057
1627 C057 8.767 -1.627 -5.079 c3 114 NIL_114   -0.040
1628 C058 7.843 -2.340 -4.066 c3 114 NIL_114    0.015
1629 C059 9.699 -2.637 -5.774 c3 114 NIL_114   -0.064
1630 H05S 10.302 -3.180 -5.041 hc 114 NIL_114    0.023
1631 H05T 10.377 -2.120 -6.456 hc 114 NIL_114    0.023
1632 H05U 9.119 -3.361 -6.350 hc 114 NIL_114    0.023
1633 H05V 7.255 -3.098 -4.577 h1 114 NIL_114    0.047
1634 H05W 8.487 -2.917 -3.395 h1 114 NIL_114    0.047
1635 H05X 9.369 -0.877 -4.561 hc 114 NIL_114    0.028
1636 H05Y 8.185 -1.118 -5.847 hc 114 NIL_114    0.028
1637 C067 1.345 0.501 0.858 c3 115 NIL_115   -0.064
1638 C068 1.416 -1.033 0.778 c3 115 NIL_115   -0.040
1639 C069 2.784 -1.612 0.337 c3 115 NIL_115    0.015
1640 H07M 2.711 -2.704 0.349 h1 115 NIL_115    0.047
1641 H07N 2.993 -1.345 -0.698 h1 115 NIL_115    0.047
1642 H07O 1.161 -1.432 1.760 hc 115 NIL_115    0.028
1643 H07P 0.647 -1.372 0.090 hc 115 NIL_115    0.028
1644 H07Q 1.411 0.943 -0.137 hc 115 NIL_115    0.023
1645 H07R 2.144 0.900 1.486 hc 115 NIL_115    0.023
1646 H07S 0.390 0.803 1.295 hc 115 NIL_115    0.023
1647 C01K -3.885 -4.247 0.086 c3 116 NIL_116    0.007
1648 C01L -4.640 -5.040 -0.989 c3 116 NIL_116    0.105
1649 C01M -2.794 -5.248 0.574 c3 116 NIL_116    0.131
1650 N00C -3.582 -5.732 -1.694 n 116 NIL_116   -0.285
1651 C01N -5.595 -4.224 -1.826 c 116 NIL_116    0.510
1652 C01O -2.707 -6.255 -0.632 c3 116 NIL_116    0.046
1653 C01P -3.451 -5.943 1.781 c 116 NIL_116    0.510
1654 N00D -1.507 -4.532 0.929 n 116 NIL_116   -0.284
1655 O00C -6.569 -3.724 -1.295 o 116 NIL_116   -0.549
1656 O00D -4.239 -6.865 1.676 o 116 NIL_116   -0.544
1657 H01S -1.700 -6.418 -1.002 h1 116 NIL_116    0.050
1658 H01T -3.079 -7.243 -0.352 h1 116 NIL_116    0.050
1659 H01U -5.261 -5.796 -0.502 h1 116 NIL_116    0.061
1660 H01V -3.447 -3.348 -0.352 hc 116 NIL_116    0.032
1661 H01W -4.553 -3.925 0.889 hc 116 NIL_116    0.032
1662 C054 -5.701 -3.308 6.077 c3 117 NIL_117   -0.040
1663 C055 -4.157 -3.316 6.032 c3 117 NIL_117    0.015
1664 C056 -6.240 -1.905 5.742 c3 117 NIL_117   -0.064
1665 H05L -5.916 -1.593 4.746 hc 117 NIL_117    0.023
1666 H05M -5.879 -1.172 6.468 hc 117 NIL_117    0.023
1667 H05N -7.332 -1.900 5.767 hc 117 NIL_117    0.023
1668 H05O -3.865 -3.068 5.014 h1 117 NIL_117    0.047
1669 H05P -3.779 -2.511 6.670 h1 117 NIL_117    0.047
1670 H05Q -6.052 -3.595 7.071 hc 117 NIL_117    0.028
1671 H05R -6.109 -4.027 5.364 hc 117 NIL_117    0.028
1672 C05N 1.444 3.622 -9.030 c3 118 NIL_118    0.015
1673 C05O 2.038 4.721 -9.945 c3 118 NIL_118   -0.040
1674 C05P 2.841 5.772 -9.155 c3 118 NIL_118   -0.064
1675 H06I 3.314 6.477 -9.843 hc 118 NIL_118    0.023
1676 H06J 3.625 5.292 -8.565 hc 118 NIL_118    0.023
1677 H06K 2.194 6.335 -8.479 hc 118 NIL_118    0.023
1678 H06L 1.259 5.208 -10.532 hc 118 NIL_118    0.028
1679 H06M 2.704 4.244 -10.666 hc 118 NIL_118    0.028
1680 H06N 1.014 2.850 -9.663 h1 118 NIL_118    0.047
1681 H06O 2.283 3.133 -8.532 h1 118 NIL_118    0.047
1682 N00V -5.374 -4.127 -3.167 n 119 NIL_119   -0.284
1683 C03I -4.101 -4.579 -3.844 c3 119 NIL_119    0.131
1684 C03J -3.289 -3.340 -4.329 c3 119 NIL_119    0.007
1685 C03K -4.324 -5.366 -5.173 c3 119 NIL_119    0.046
1686 C03L -3.195 -5.461 -2.964 c 119 NIL_119    0.510
1687 C03M -3.741 -3.155 -5.787 c3 119 NIL_119    0.105
1688 N00W -3.880 -4.507 -6.280 n 119 NIL_119   -0.285
1689 O00V -2.142 -5.905 -3.385 o 119 NIL_119   -0.544
1690 C03N -2.935 -2.211 -6.648 c 119 NIL_119    0.510
1691 O00W -2.538 -1.161 -6.179 o 119 NIL_119   -0.549
1692 H03S -4.732 -2.715 -5.803 h1 119 NIL_119    0.061
1693 H03T -3.746 -6.295 -5.196 h1 119 NIL_119    0.050
1694 H03U -5.373 -5.633 -5.310 h1 119 NIL_119    0.050
1695 H03V -2.214 -3.539 -4.320 hc 119 NIL_119    0.032
1696 H03W -3.462 -2.455 -3.716 hc 119 NIL_119    0.032
1697 C06G 5.010 0.823 14.469 c3 120 NIL_120    0.092
1698 C06H 5.419 1.440 13.147 c 120 NIL_120    0.510
1699 O01H 5.380 2.636 12.923 o 120 NIL_120   -0.557
1700 H087 4.114 0.227 14.274 h1 120 NIL_120    0.057
1701 H088 5.791 0.126 14.781 h1 120 NIL_120    0.057
1702 C05T -6.262 -3.125 17.666 c3 121 NIL_121    0.104
1703 N01J -5.718 -2.516 18.881 n 121 NIL_121   -0.286
1704 C05U -6.779 -4.507 18.088 c3 121 NIL_121   -0.005
1705 C05V -7.268 -2.240 16.956 c 121 NIL_121    0.510
1706 C05W -5.523 -3.560 19.898 c3 121 NIL_121    0.034
1707 C05X -5.805 -4.911 19.208 c3 121 NIL_121    0.040
1708 O01F -8.173 -2.678 16.275 o 121 NIL_121   -0.552
1709 N01K -4.552 -5.469 18.681 n 121 NIL_121   -0.310
1710 H06W -6.257 -5.626 19.900 h1 121 NIL_121    0.052
1711 H06X -6.245 -3.400 20.704 h1 121 NIL_121    0.049
1712 H06Y -4.507 -3.521 20.304 h1 121 NIL_121    0.049
1713 H06Z -6.796 -5.213 17.255 hc 121 NIL_121    0.031
1714 H070 -7.789 -4.422 18.500 hc 121 NIL_121    0.031
1715 H071 -5.427 -3.255 16.971 h1 121 NIL_121    0.061
1716 H072 -3.728 -4.898 18.794 hn 121 NIL_121    0.150
1717 C043 5.835 0.787 4.354 c3 122 NIL_122    0.046
1718 C044 5.334 -0.048 5.565 c3 122 NIL_122    0.131
1719 N013 5.397 0.124 3.124 n 122 NIL_122   -0.285
1720 C045 4.601 -1.263 4.917 c3 122 NIL_122    0.007
1721 N014 6.458 -0.495 6.458 n 122 NIL_122   -0.284
1722 C046 4.270 0.810 6.261 c 122 NIL_122    0.510
1723 C047 4.997 -1.242 3.429 c3 122 NIL_122    0.105
1724 O011 3.287 1.227 5.677 o 122 NIL_122   -0.547
1725 C048 3.953 -1.793 2.484 c 122 NIL_122    0.510
1726 O012 3.208 -2.691 2.831 o 122 NIL_122   -0.549
1727 H04G 5.874 -1.875 3.276 h1 122 NIL_122    0.061
1728 H04H 3.516 -1.164 5.002 hc 122 NIL_122    0.032
1729 H04I 4.869 -2.216 5.380 hc 122 NIL_122    0.032
1730 H04J 5.437 1.805 4.377 h1 122 NIL_122    0.050
1731 H04K 6.920 0.853 4.344 h1 122 NIL_122    0.050
1732 C01E -2.117 -6.636 5.917 c 123 NIL_123    0.510
1733 C01F -2.815 -5.370 5.412 c3 123 NIL_123    0.131
1734 O00A -1.515 -7.386 5.172 o 123 NIL_123   -0.547
1735 C01G -1.751 -4.501 4.671 c3 123 NIL_123    0.007
1736 C01H -3.762 -5.848 4.274 c3 123 NIL_123    0.046
1737 N00A -3.531 -4.592 6.479 n 123 NIL_123   -0.284
1738 C01I -2.305 -4.302 3.247 c3 123 NIL_123    0.105
1739 N00B -3.151 -5.451 3.001 n 123 NIL_123   -0.285
1740 C01J -1.261 -4.049 2.183 c 123 NIL_123    0.510
1741 O00B -0.244 -3.445 2.464 o 123 NIL_123   -0.549
1742 H01N -2.953 -3.424 3.221 h1 123 NIL_123    0.061
1743 H01O -3.911 -6.932 4.299 h1 123 NIL_123    0.050
1744 H01P -4.739 -5.369 4.344 h1 123 NIL_123    0.050
1745 H01Q -0.789 -5.017 4.615 hc 123 NIL_123    0.032
1746 H01R -1.568 -3.543 5.163 hc 123 NIL_123    0.032
1747 C051 4.694 -5.402 -9.057 c3 124 NIL_124   -0.064
1748 C052 3.955 -4.330 -9.881 c3 124 NIL_124   -0.040
1749 C053 3.174 -3.332 -8.992 c3 124 NIL_124    0.015
1750 H05E 2.581 -2.691 -9.638 h1 124 NIL_124    0.047
1751 H05F 2.436 -3.910 -8.430 h1 124 NIL_124    0.047
1752 H05G 4.659 -3.808 -10.530 hc 124 NIL_124    0.028
1753 H05H 3.245 -4.826 -10.545 hc 124 NIL_124    0.028
1754 H05I 5.154 -6.135 -9.723 hc 124 NIL_124    0.023
1755 H05J 3.998 -5.929 -8.400 hc 124 NIL_124    0.023
1756 H05K 5.479 -4.956 -8.442 hc 124 NIL_124    0.023
1757 C03Y -0.399 6.332 19.561 c3 125 NIL_125    0.034
1758 C03Z -1.527 7.259 19.068 c3 125 NIL_125    0.040
1759 N011 0.558 6.195 18.457 n 125 NIL_125   -0.286
1760 C040 -0.827 8.083 17.976 c3 125 NIL_125   -0.005
1761 N012 -2.634 6.476 18.504 n 125 NIL_125   -0.310
1762 C041 0.152 7.073 17.358 c3 125 NIL_125    0.104
1763 C042 1.323 7.677 16.606 c 125 NIL_125    0.510
1764 O010 1.250 8.730 16.005 o 125 NIL_125   -0.552
1765 H049 -0.386 6.454 16.634 h1 125 NIL_125    0.061
1766 H04A -1.524 8.489 17.238 hc 125 NIL_125    0.031
1767 H04B -0.276 8.908 18.436 hc 125 NIL_125    0.031
1768 H04C -1.893 7.896 19.879 h1 125 NIL_125    0.052
1769 H04D 0.115 6.797 20.407 h1 125 NIL_125    0.049
1770 H04E -0.786 5.354 19.861 h1 125 NIL_125    0.049
1771 H04F -2.399 5.570 18.127 hn 125 NIL_125    0.150
1772 C05Q 1.194 4.868 -0.186 c3 126 NIL_126   -0.040
1773 C05R 0.419 3.788 0.593 c3 126 NIL_126    0.015
1774 C05S 2.338 4.228 -0.995 c3 126 NIL_126   -0.064
1775 H06P 2.869 4.988 -1.573 hc 126 NIL_126    0.023
1776 H06Q 1.946 3.479 -1.688 hc 126 NIL_126    0.023
1777 H06R 3.055 3.742 -0.329 hc 126 NIL_126    0.023
1778 H06S 0.009 3.077 -0.118 h1 126 NIL_126    0.047
1779 H06T 1.153 3.220 1.171 h1 126 NIL_126    0.047
1780 H06U 1.607 5.603 0.509 hc 126 NIL_126    0.028
1781 H06V 0.529 5.391 -0.873 hc 126 NIL_126    0.028
1782 C025 -1.202 4.316 5.203 c3 127 NIL_127    0.007
1783 C026 -1.326 4.962 3.810 c3 127 NIL_127    0.105
1784 C027 -2.625 4.422 5.825 c3 127 NIL_127    0.131
1785 N00I -2.689 4.696 3.387 n 127 NIL_127   -0.285
1786 C028 -0.251 4.534 2.837 c 127 NIL_127    0.510
1787 C029 -3.546 4.605 4.581 c3 127 NIL_127    0.046
1788 N00J -2.756 5.560 6.808 n 127 NIL_127   -0.284
1789 C02A -2.990 3.047 6.404 c 127 NIL_127    0.510
1790 O00I 0.896 4.404 3.223 o 127 NIL_127   -0.549
1791 O00J -2.967 2.029 5.737 o 127 NIL_127   -0.547
1792 H02F -4.226 3.756 4.458 h1 127 NIL_127    0.050
1793 H02G -4.164 5.498 4.673 h1 127 NIL_127    0.050
1794 H02H -1.226 6.046 3.885 h1 127 NIL_127    0.061
1795 H02I -0.908 3.272 5.068 hc 127 NIL_127    0.032
1796 H02J -0.429 4.785 5.816 hc 127 NIL_127    0.032
1797 C00K -2.995 3.383 -16.756 c2 128 NIL_128    0.037
1798 C00L -2.002 4.404 -16.607 c 128 NIL_128    0.510
1799 C00M -3.960 3.130 -15.857 c2 128 NIL_128   -0.049
1800 C00N -2.919 2.589 -17.834 c2 128 NIL_128   -0.049
1801 O003 -1.589 4.906 -17.639 o 128 NIL_128   -0.535
1802 C00O -4.801 2.106 -16.026 c2 128 NIL_128   -0.057
1803 C00P -3.755 1.566 -17.995 c2 128 NIL_128   -0.057
1804 C00Q -4.699 1.305 -17.088 c2 128 NIL_128   -0.031
1805 C00R -5.621 0.116 -17.271 c3 128 NIL_128    0.036
1806 N003 -5.419 -1.015 -16.356 n 128 NIL_128   -0.310
1807 C00S -4.241 -1.638 -16.113 c 128 NIL_128    0.510
1808 C00T -4.383 -2.948 -15.348 c3 128 NIL_128    0.105
1809 O004 -3.167 -1.192 -16.472 o 128 NIL_128   -0.553
1810 N004 -3.410 -4.012 -15.678 n 128 NIL_128   -0.283
1811 C00U -4.242 -2.715 -13.832 c3 128 NIL_128    0.007
1812 C00V -3.121 -4.747 -14.436 c3 128 NIL_128    0.046
1813 C00W -3.877 -4.098 -13.243 c3 128 NIL_128    0.131
1814 N005 -5.149 -4.763 -12.813 n 128 NIL_128   -0.284
1815 C00X -2.861 -3.965 -12.094 c 128 NIL_128    0.510
1816 C00Y -6.042 -5.313 -13.863 c3 128 NIL_128    0.015
1817 O005 -1.789 -3.409 -12.238 o 128 NIL_128   -0.544
1818 C00Z -6.455 -6.780 -13.605 c3 128 NIL_128   -0.040
1819 C010 -5.262 -7.754 -13.611 c3 128 NIL_128   -0.064
1820 H00Q -4.503 -7.456 -12.885 hc 128 NIL_128    0.023
1821 H00R -4.803 -7.794 -14.600 hc 128 NIL_128    0.023
1822 H00S -5.602 -8.758 -13.348 hc 128 NIL_128    0.023
1823 H00T -7.166 -7.084 -14.375 hc 128 NIL_128    0.028
1824 H00U -6.975 -6.855 -12.648 hc 128 NIL_128    0.028
1825 H00V -5.568 -5.285 -14.842 h1 128 NIL_128    0.047
1826 H00W -6.938 -4.687 -13.912 h1 128 NIL_128    0.047
1827 H00X -2.050 -4.672 -14.251 h1 128 NIL_128    0.050
1828 H00Y -3.391 -5.801 -14.555 h1 128 NIL_128    0.050
1829 H00Z -3.439 -1.995 -13.649 hc 128 NIL_128    0.032
1830 H010 -5.161 -2.309 -13.403 hc 128 NIL_128    0.032
1831 H011 -5.381 -3.334 -15.568 h1 128 NIL_128    0.061
1832 H012 -6.655 0.450 -17.161 h1 128 NIL_128    0.052
1833 H013 -5.519 -0.271 -18.289 h1 128 NIL_128    0.052
1834 H014 -3.647 0.929 -18.869 ha 128 NIL_128    0.063
1835 H015 -5.569 1.917 -15.279 ha 128 NIL_128    0.063
1836 H016 -2.143 2.736 -18.582 ha 128 NIL_128    0.063
1837 H017 -4.100 3.750 -14.982 ha 128 NIL_128    0.063
1838 H018 -6.259 -1.437 -15.988 hn 128 NIL_128    0.150
1839 C04R -2.344 -5.663 10.789 c3 129 NIL_129    0.013
1840 N01B -1.335 -5.862 11.835 n 129 NIL_129   -0.314
1841 C04S -1.735 -5.898 9.387 c3 129 NIL_129   -0.010
1842 C04T -2.794 -6.151 8.282 c3 129 NIL_129    0.101
1843 C04U -3.466 -4.868 7.815 c 129 NIL_129    0.510
1844 N01C -2.197 -6.957 7.220 n 129 NIL_129   -0.302
1845 O019 -3.955 -4.113 8.634 o 129 NIL_129   -0.550
1846 H051 -3.597 -6.763 8.704 h1 129 NIL_129    0.061
1847 H052 -1.092 -5.058 9.110 hc 129 NIL_129    0.031
1848 H053 -1.090 -6.779 9.451 hc 129 NIL_129    0.031
1849 H054 -2.742 -4.648 10.862 h1 129 NIL_129    0.047
1850 H055 -3.156 -6.376 10.961 h1 129 NIL_129    0.047
1851 H056 -1.759 -7.816 7.517 hn 129 NIL_129    0.150
1852 H057 -0.429 -6.188 11.530 hn 129 NIL_129    0.149
1853 C03U 5.148 0.508 9.836 c3 130 NIL_130   -0.010
1854 C03V 5.589 0.816 8.383 c3 130 NIL_130    0.101
1855 C03W 6.243 0.863 10.865 c3 130 NIL_130    0.013
1856 C03X 6.513 -0.245 7.797 c 130 NIL_130    0.510
1857 N00Z 4.426 1.126 7.557 n 130 NIL_130   -0.302
1858 N010 5.828 0.538 12.232 n 130 NIL_130   -0.314
1859 O00Z 7.286 -0.854 8.513 o 130 NIL_130   -0.550
1860 H042 7.160 0.308 10.658 h1 130 NIL_130    0.047
1861 H043 6.470 1.929 10.793 h1 130 NIL_130    0.047
1862 H044 6.181 1.734 8.399 h1 130 NIL_130    0.061
1863 H045 4.871 -0.545 9.924 hc 130 NIL_130    0.031
1864 H046 4.256 1.094 10.080 hc 130 NIL_130    0.031
1865 H047 5.834 -0.436 12.492 hn 130 NIL_130    0.149
1866 H048 3.709 1.685 7.993 hn 130 NIL_130    0.150
1867 C049 -3.300 -3.811 -8.570 c3 131 NIL_131    0.131
1868 C04A -4.642 -3.582 -9.336 c3 131 NIL_131    0.007
1869 C04B -2.385 -4.422 -9.677 c3 131 NIL_131    0.046
1870 N015 -2.737 -2.553 -7.955 n 131 NIL_131   -0.284
1871 C04C -3.640 -4.903 -7.543 c 131 NIL_131    0.510
1872 C04D -4.566 -4.636 -10.452 c3 131 NIL_131    0.105
1873 N016 -3.192 -4.518 -10.902 n 131 NIL_131   -0.285
1874 O013 -3.720 -6.084 -7.830 o 131 NIL_131   -0.544
1875 C04E -5.612 -4.599 -11.544 c 131 NIL_131    0.510
1876 O014 -6.796 -4.531 -11.281 o 131 NIL_131   -0.549
1877 H04L -4.686 -5.633 -10.019 h1 131 NIL_131    0.061
1878 H04M -1.499 -3.827 -9.855 h1 131 NIL_131    0.050
1879 H04N -2.037 -5.422 -9.408 h1 131 NIL_131    0.050
1880 H04O -4.699 -2.583 -9.774 hc 131 NIL_131    0.032
1881 H04P -5.515 -3.727 -8.694 hc 131 NIL_131    0.032
1882 C06A 9.286 0.303 5.483 c3 132 NIL_132   -0.064
1883 C06B 8.927 -1.115 5.962 c3 132 NIL_132   -0.040
1884 C06C 7.419 -1.455 5.839 c3 132 NIL_132    0.015
1885 H07T 7.219 -1.551 4.775 h1 132 NIL_132    0.047
1886 H07U 7.253 -2.438 6.290 h1 132 NIL_132    0.047
1887 H07V 9.490 -1.835 5.362 hc 132 NIL_132    0.028
1888 H07W 9.267 -1.242 6.991 hc 132 NIL_132    0.028
1889 H07X 8.778 1.057 6.089 hc 132 NIL_132    0.023
1890 H07Y 9.011 0.437 4.436 hc 132 NIL_132    0.023
1891 H07Z 10.362 0.467 5.567 hc 132 NIL_132    0.023
1892 N01H -3.503 4.140 11.770 n 133 NIL_133   -0.314
1893 C05G -2.293 4.491 11.018 c3 133 NIL_133    0.013
1894 C05H -2.191 3.724 9.681 c3 133 NIL_133   -0.010
1895 C05I -3.337 4.019 8.678 c3 133 NIL_133    0.101
1896 C05J -3.184 5.413 8.096 c 133 NIL_133    0.510
1897 N01I -3.377 2.953 7.687 n 133 NIL_133   -0.302
1898 O01E -3.427 6.378 8.798 o 133 NIL_133   -0.550
1899 H064 -4.297 4.002 9.202 h1 133 NIL_133    0.061
1900 H065 -1.232 3.954 9.209 hc 133 NIL_133    0.031
1901 H066 -2.177 2.654 9.911 hc 133 NIL_133    0.031
1902 H067 -1.419 4.235 11.622 h1 133 NIL_133    0.047
1903 H068 -2.278 5.569 10.843 h1 133 NIL_133    0.047
1904 H069 -3.637 2.041 8.031 hn 133 NIL_133    0.150
1905 H06A -4.290 3.802 11.237 hn 133 NIL_133    0.149
1906 C011 -1.533 -5.692 13.161 c 134 NIL_134    0.510
1907 C012 -0.317 -6.053 13.995 c3 134 NIL_134    0.092
1908 O006 -2.586 -5.296 13.623 o 134 NIL_134   -0.557
1909 H019 -0.179 -7.135 13.933 h1 134 NIL_134    0.057
1910 H01A 0.546 -5.609 13.492 h1 134 NIL_134    0.057
1911 H058 3.538 -6.105 16.851 hn 135 NIL_135    0.151
1912 N01D 3.867 -5.304 17.369 n 135 NIL_135   -0.298
1913 C04V 2.938 -4.720 18.361 c3 135 NIL_135    0.129
1914 C04W 2.024 -3.685 17.666 c3 135 NIL_135    0.006
1915 C04X 1.946 -5.809 18.827 c3 135 NIL_135    0.045
1916 C04Y 3.673 -4.047 19.524 c 135 NIL_135    0.510
1917 C04Z 0.736 -4.442 17.283 c3 135 NIL_135    0.105
1918 N01E 0.819 -5.767 17.894 n 135 NIL_135   -0.285
1919 O01A 3.193 -3.934 20.636 o 135 NIL_135   -0.545
1920 C050 0.418 -4.540 15.797 c 135 NIL_135    0.510
1921 O01B 0.853 -3.735 14.995 o 135 NIL_135   -0.549
1922 H059 -0.111 -3.917 17.732 h1 135 NIL_135    0.061
1923 H05A 2.417 -6.797 18.827 h1 135 NIL_135    0.050
1924 H05B 1.558 -5.593 19.825 h1 135 NIL_135    0.050
1925 H05C 2.519 -3.213 16.815 hc 135 NIL_135    0.032
1926 H05D 1.756 -2.889 18.366 hc 135 NIL_135    0.032
1927 C24J 45.944 37.466 -9.057 c3 136 NIL_136   -0.064
1928 C24K 45.205 38.538 -9.881 c3 136 NIL_136   -0.040
1929 C24L 44.424 39.536 -8.992 c3 136 NIL_136    0.015
1930 H2O5 43.831 40.177 -9.638 h1 136 NIL_136    0.047
1931 H2O6 43.686 38.958 -8.430 h1 136 NIL_136    0.047
1932 H2O7 45.909 39.060 -10.530 hc 136 NIL_136    0.028
1933 H2O8 44.495 38.042 -10.545 hc 136 NIL_136    0.028
1934 H2O9 46.404 36.733 -9.723 hc 136 NIL_136    0.023
1935 H2OA 45.248 36.939 -8.400 hc 136 NIL_136    0.023
1936 H2OB 46.729 37.912 -8.442 hc 136 NIL_136    0.023
1937 C24S 38.829 46.520 -0.170 c3 137 NIL_137    0.046
1938 C24T 39.248 47.452 1.013 c3 137 NIL_137    0.131
1939 N0IU 39.077 47.285 -1.396 n 137 NIL_137   -0.285
1940 C24U 39.189 48.864 0.361 c3 137 NIL_137    0.007
1941 C24V 38.159 47.436 2.102 c 137 NIL_137    0.510
1942 N0IV 40.636 47.169 1.543 n 137 NIL_137   -0.284
1943 C24W 38.697 48.646 -1.082 c3 137 NIL_137    0.105
1944 O0HU 36.975 47.330 1.844 o 137 NIL_137   -0.544
1945 C24X 39.185 49.716 -2.026 c 137 NIL_137    0.510
1946 O0HV 38.969 50.883 -1.754 o 137 NIL_137   -0.549
1947 H2OQ 37.604 48.692 -1.105 h1 137 NIL_137    0.061
1948 H2OR 40.175 49.333 0.359 hc 137 NIL_137    0.032
1949 H2OS 38.515 49.545 0.887 hc 137 NIL_137    0.032
1950 H2OT 39.338 45.556 -0.158 h1 137 NIL_137    0.050
1951 H2OU 37.758 46.309 -0.149 h1 137 NIL_137    0.050
1952 C25N 34.326 51.178 15.353 c3 138 NIL_138   -0.052
1953 C25O 35.520 50.699 16.205 c3 138 NIL_138   -0.004
1954 H2Q8 36.429 50.722 15.597 h1 138 NIL_138    0.043
1955 H2Q9 35.632 51.418 17.017 h1 138 NIL_138    0.043
1956 H2QA 33.420 51.231 15.961 hc 138 NIL_138    0.024
1957 H2QB 34.140 50.514 14.506 hc 138 NIL_138    0.024
1958 H2QC 34.530 52.176 14.959 hc 138 NIL_138    0.024
1959 C20J 39.717 37.176 13.161 c 139 NIL_139    0.510
1960 C20K 40.933 36.815 13.995 c3 139 NIL_139    0.092
1961 O0GO 38.664 37.572 13.623 o 139 NIL_139   -0.557
1962 H2K0 41.071 35.733 13.933 h1 139 NIL_139    0.057
1963 H2K1 41.796 37.259 13.492 h1 139 NIL_139    0.057
1964 C236 40.135 48.653 -8.981 c3 140 NIL_140    0.007
1965 C237 39.357 48.472 -10.293 c3 140 NIL_140    0.105
1966 C238 40.292 47.215 -8.404 c3 140 NIL_140    0.131
1967 N0IC 39.774 47.172 -10.770 n 140 NIL_140   -0.285
1968 C239 39.538 49.631 -11.235 c 140 NIL_140    0.510
1969 C23A 39.787 46.314 -9.580 c3 140 NIL_140    0.046
1970 N0ID 41.724 46.955 -7.988 n 140 NIL_140   -0.284
1971 C23B 39.300 47.165 -7.231 c 140 NIL_140    0.510
1972 O0HF 39.272 50.751 -10.839 o 140 NIL_140   -0.549
1973 O0HG 38.115 46.919 -7.361 o 140 NIL_140   -0.544
1974 H2MO 40.368 45.405 -9.721 h1 140 NIL_140    0.050
1975 H2MP 38.755 45.992 -9.426 h1 140 NIL_140    0.050
1976 H2MQ 38.286 48.415 -10.077 h1 140 NIL_140    0.061
1977 H2MR 41.107 49.106 -9.182 hc 140 NIL_140    0.032
1978 H2MS 39.603 49.331 -8.308 hc 140 NIL_140    0.032
1979 C218 43.879 48.521 17.276 c3 141 NIL_141    0.129
1980 C219 43.591 47.413 16.246 c3 141 NIL_141    0.006
1981 C21A 45.358 48.248 17.652 c3 141 NIL_141    0.045
1982 N0HT 43.731 49.851 16.653 n 141 NIL_141   -0.298
1983 C21B 42.938 48.318 18.468 c 141 NIL_141    0.510
1984 C21C 44.482 46.250 16.696 c3 141 NIL_141    0.105
1985 N0HU 45.682 46.875 17.234 n 141 NIL_141   -0.285
1986 H2KO 44.542 50.231 16.188 hn 141 NIL_141    0.151
1987 O0GW 43.183 47.557 19.386 o 141 NIL_141   -0.545
1988 C21D 44.730 45.227 15.613 c 141 NIL_141    0.510
1989 O0GX 43.836 44.908 14.852 o 141 NIL_141   -0.549
1990 H2KP 43.997 45.716 17.518 h1 141 NIL_141    0.061
1991 H2KQ 46.016 48.933 17.109 h1 141 NIL_141    0.050
1992 H2KR 45.529 48.367 18.725 h1 141 NIL_141    0.050
1993 H2KS 43.898 47.740 15.248 hc 141 NIL_141    0.032
1994 H2KT 42.535 47.134 16.207 hc 141 NIL_141    0.032
1995 C225 46.962 42.762 -5.009 c3 142 NIL_142    0.046
1996 C226 46.872 41.805 -3.786 c3 142 NIL_142    0.131
1997 N0I3 46.523 42.030 -6.201 n 142 NIL_142   -0.285
1998 C227 46.109 40.570 -4.358 c3 142 NIL_142    0.007
1999 N0I4 48.234 41.432 -3.240 n 142 NIL_142   -0.284
2000 C228 45.964 42.552 -2.793 c 142 NIL_142    0.510
2001 C229 46.371 40.625 -5.873 c3 142 NIL_142    0.105
2002 O0H6 44.795 42.786 -3.044 o 142 NIL_142   -0.544
2003 C22A 45.384 39.884 -6.745 c 142 NIL_142    0.510
2004 O0H7 44.769 38.927 -6.312 o 142 NIL_142   -0.549
2005 H2LL 47.326 40.154 -6.107 h1 142 NIL_142    0.061
2006 H2LM 45.033 40.645 -4.188 hc 142 NIL_142    0.032
2007 H2LN 46.436 39.625 -3.916 hc 142 NIL_142    0.032
2008 H2LO 46.301 43.626 -4.891 h1 142 NIL_142    0.050
2009 H2LP 47.977 43.140 -5.143 h1 142 NIL_142    0.050
2010 C252 40.438 50.429 -4.000 c3 143 NIL_143    0.015
2011 C253 39.473 50.958 -5.085 c3 143 NIL_143   -0.040
2012 C254 40.129 52.089 -5.895 c3 143 NIL_143   -0.064
2013 H2P2 39.422 52.485 -6.628 hc 143 NIL_143    0.023
2014 H2P3 41.007 51.717 -6.428 hc 143 NIL_143    0.023
2015 H2P4 40.439 52.907 -5.240 hc 143 NIL_143    0.023
2016 H2P5 38.560 51.331 -4.613 hc 143 NIL_143    0.028
2017 H2P6 39.183 50.163 -5.772 hc 143 NIL_143    0.028
2018 H2P7 41.383 50.134 -4.449 h1 143 NIL_143    0.047
2019 H2P8 40.703 51.271 -3.352 h1 143 NIL_143    0.047
2020 N0IW 37.747 47.008 11.770 n 144 NIL_144   -0.314
2021 C24Y 38.957 47.359 11.018 c3 144 NIL_144    0.013
2022 C24Z 39.059 46.592 9.681 c3 144 NIL_144   -0.010
2023 C250 37.913 46.887 8.678 c3 144 NIL_144    0.101
2024 C251 38.066 48.281 8.096 c 144 NIL_144    0.510
2025 N0IX 37.873 45.821 7.687 n 144 NIL_144   -0.302
2026 O0HW 37.823 49.246 8.798 o 144 NIL_144   -0.550
2027 H2OV 36.953 46.870 9.202 h1 144 NIL_144    0.061
2028 H2OW 40.018 46.822 9.209 hc 144 NIL_144    0.031
2029 H2OX 39.073 45.522 9.911 hc 144 NIL_144    0.031
2030 H2OY 39.831 47.103 11.622 h1 144 NIL_144    0.047
2031 H2OZ 38.972 48.437 10.843 h1 144 NIL_144    0.047
2032 H2P0 37.613 44.909 8.031 hn 144 NIL_144    0.150
2033 H2P1 36.960 46.670 11.237 hn 144 NIL_144    0.149
2034 C21K 36.845 51.089 6.444 c3 145 NIL_145   -0.064
2035 C21L 38.107 50.725 5.641 c3 145 NIL_145   -0.040
2036 C21M 39.049 49.755 6.393 c3 145 NIL_145    0.015
2037 H2KZ 39.946 49.626 5.793 h1 145 NIL_145    0.047
2038 H2L0 39.400 50.274 7.289 h1 145 NIL_145    0.047
2039 H2L1 37.830 50.320 4.668 hc 145 NIL_145    0.028
2040 H2L2 38.661 51.644 5.438 hc 145 NIL_145    0.028
2041 H2L3 36.232 50.205 6.629 hc 145 NIL_145    0.023
2042 H2L4 36.246 51.814 5.890 hc 145 NIL_145    0.023
2043 H2L5 37.114 51.538 7.404 hc 145 NIL_145    0.023
2044 C21E 46.356 42.549 -7.434 c 146 NIL_146    0.510
2045 C21F 45.972 41.555 -8.542 c3 146 NIL_146    0.131
2046 O0GY 46.556 43.733 -7.635 o 146 NIL_146   -0.544
2047 C21G 47.327 41.171 -9.206 c3 146 NIL_146    0.007
2048 C21H 45.217 42.298 -9.689 c3 146 NIL_146    0.046
2049 N0HV 45.247 40.330 -8.027 n 146 NIL_146   -0.284
2050 C21I 47.308 41.839 -10.589 c3 146 NIL_146    0.105
2051 N0HW 45.901 41.914 -10.925 n 146 NIL_146   -0.285
2052 C21J 48.206 41.144 -11.585 c 146 NIL_146    0.510
2053 O0GZ 49.373 40.953 -11.299 o 146 NIL_146   -0.549
2054 H2KU 47.676 42.866 -10.501 h1 146 NIL_146    0.061
2055 H2KV 44.147 42.092 -9.711 h1 146 NIL_146    0.050
2056 H2KW 45.317 43.383 -9.605 h1 146 NIL_146    0.050
2057 H2KX 47.426 40.091 -9.303 hc 146 NIL_146    0.032
2058 H2KY 48.194 41.511 -8.634 hc 146 NIL_146    0.032
2059 N0IM 34.135 41.957 17.143 n 147 NIL_147   -0.298
2060 C23X 35.258 42.570 17.883 c3 147 NIL_147    0.129
2061 H2NH 33.474 42.586 16.712 hn 147 NIL_147    0.151
2062 C23Y 36.434 42.815 16.903 c3 147 NIL_147    0.006
2063 C23Z 34.837 43.991 18.340 c3 147 NIL_147    0.045
2064 C240 35.742 41.681 19.037 c 147 NIL_147    0.510
2065 C241 36.616 44.339 16.804 c3 147 NIL_147    0.105
2066 N0IN 35.426 44.942 17.394 n 147 NIL_147   -0.285
2067 O0HN 36.271 42.121 20.040 o 147 NIL_147   -0.545
2068 C242 36.904 44.849 15.402 c 147 NIL_147    0.510
2069 O0HO 37.512 44.171 14.594 o 147 NIL_147   -0.549
2070 H2NI 37.470 44.631 17.422 h1 147 NIL_147    0.061
2071 H2NJ 33.748 44.094 18.363 h1 147 NIL_147    0.050
2072 H2NK 35.235 44.223 19.331 h1 147 NIL_147    0.050
2073 H2NL 36.203 42.389 15.922 hc 147 NIL_147    0.032
2074 H2NM 37.362 42.351 17.248 hc 147 NIL_147    0.032
2075 C22B 50.749 43.950 16.418 c3 148 NIL_148   -0.004
2076 C22C 50.624 42.633 15.619 c3 148 NIL_148   -0.052
2077 H2LQ 51.618 42.269 15.355 hc 148 NIL_148    0.024
2078 H2LR 50.068 42.780 14.691 hc 148 NIL_148    0.024
2079 H2LS 50.127 41.854 16.197 hc 148 NIL_148    0.024
2080 H2LT 51.422 43.805 17.264 h1 148 NIL_148    0.043
2081 H2LU 51.211 44.699 15.770 h1 148 NIL_148    0.043
2082 H2NZ 44.788 36.763 16.851 hn 149 NIL_149    0.151
2083 N0IS 45.117 37.564 17.369 n 149 NIL_149   -0.298
2084 C24D 44.188 38.148 18.361 c3 149 NIL_149    0.129
2085 C24E 43.274 39.183 17.666 c3 149 NIL_149    0.006
2086 C24F 43.196 37.059 18.827 c3 149 NIL_149    0.045
2087 C24G 44.923 38.821 19.524 c 149 NIL_149    0.510
2088 C24H 41.986 38.426 17.283 c3 149 NIL_149    0.105
2089 N0IT 42.069 37.101 17.894 n 149 NIL_149   -0.285
2090 O0HS 44.443 38.934 20.636 o 149 NIL_149   -0.545
2091 C24I 41.668 38.328 15.797 c 149 NIL_149    0.510
2092 O0HT 42.103 39.133 14.995 o 149 NIL_149   -0.549
2093 H2O0 41.139 38.951 17.732 h1 149 NIL_149    0.061
2094 H2O1 43.667 36.071 18.827 h1 149 NIL_149    0.050
2095 H2O2 42.808 37.275 19.825 h1 149 NIL_149    0.050
2096 H2O3 43.769 39.655 16.815 hc 149 NIL_149    0.032
2097 H2O4 43.006 39.979 18.366 hc 149 NIL_149    0.032
2098 C25L 38.402 33.377 17.373 c3 150 NIL_150   -0.004
2099 C25M 38.312 32.260 16.315 c3 150 NIL_150   -0.052
2100 H2Q3 38.250 31.286 16.805 hc 150 NIL_150    0.024
2101 H2Q4 39.189 32.256 15.664 hc 150 NIL_150    0.024
2102 H2Q5 37.420 32.390 15.699 hc 150 NIL_150    0.024
2103 H2Q6 37.521 33.308 18.016 h1 150 NIL_150    0.043
2104 H2Q7 39.290 33.221 17.993 h1 150 NIL_150    0.043
2105 C24M 35.549 39.560 6.077 c3 151 NIL_151   -0.040
2106 C24N 37.093 39.552 6.032 c3 151 NIL_151    0.015
2107 C24O 35.010 40.963 5.742 c3 151 NIL_151   -0.064
2108 H2OC 35.334 41.275 4.746 hc 151 NIL_151    0.023
2109 H2OD 35.371 41.696 6.468 hc 151 NIL_151    0.023
2110 H2OE 33.918 40.968 5.767 hc 151 NIL_151    0.023
2111 H2OF 37.385 39.800 5.014 h1 151 NIL_151    0.047
2112 H2OG 37.471 40.357 6.670 h1 151 NIL_151    0.047
2113 H2OH 35.198 39.273 7.071 hc 151 NIL_151    0.028
2114 H2OI 35.141 38.841 5.364 hc 151 NIL_151    0.028
2115 C23C 46.398 43.376 9.836 c3 152 NIL_152   -0.010
2116 C23D 46.839 43.684 8.383 c3 152 NIL_152    0.101
2117 C23E 47.493 43.731 10.865 c3 152 NIL_152    0.013
2118 C23F 47.763 42.623 7.797 c 152 NIL_152    0.510
2119 N0IE 45.676 43.994 7.557 n 152 NIL_152   -0.302
2120 N0IF 47.078 43.406 12.232 n 152 NIL_152   -0.314
2121 O0HH 48.536 42.014 8.513 o 152 NIL_152   -0.550
2122 H2MT 48.410 43.176 10.658 h1 152 NIL_152    0.047
2123 H2MU 47.720 44.797 10.793 h1 152 NIL_152    0.047
2124 H2MV 47.431 44.602 8.399 h1 152 NIL_152    0.061
2125 H2MW 46.121 42.323 9.924 hc 152 NIL_152    0.031
2126 H2MX 45.506 43.962 10.080 hc 152 NIL_152    0.031
2127 H2MY 47.084 42.432 12.492 hn 152 NIL_152    0.149
2128 H2MZ 44.959 44.553 7.993 hn 152 NIL_152    0.150
2129 C249 38.906 37.205 10.789 c3 153 NIL_153    0.013
2130 N0IQ 39.915 37.006 11.835 n 153 NIL_153   -0.314
2131 C24A 39.515 36.970 9.387 c3 153 NIL_153   -0.010
2132 C24B 38.456 36.717 8.282 c3 153 NIL_153    0.101
2133 C24C 37.784 38.000 7.815 c 153 NIL_153    0.510
2134 N0IR 39.053 35.911 7.220 n 153 NIL_153   -0.302
2135 O0HR 37.295 38.755 8.634 o 153 NIL_153   -0.550
2136 H2NS 37.653 36.105 8.704 h1 153 NIL_153    0.061
2137 H2NT 40.158 37.810 9.110 hc 153 NIL_153    0.031
2138 H2NU 40.160 36.089 9.451 hc 153 NIL_153    0.031
2139 H2NV 38.508 38.220 10.862 h1 153 NIL_153    0.047
2140 H2NW 38.094 36.492 10.961 h1 153 NIL_153    0.047
2141 H2NX 39.491 35.052 7.517 hn 153 NIL_153    0.150
2142 H2NY 40.821 36.680 11.530 hn 153 NIL_153    0.149
2143 C24P 50.017 41.241 -5.079 c3 154 NIL_154   -0.040
2144 C24Q 49.093 40.528 -4.066 c3 154 NIL_154    0.015
2145 C24R 50.949 40.231 -5.774 c3 154 NIL_154   -0.064
2146 H2OJ 51.552 39.688 -5.041 hc 154 NIL_154    0.023
2147 H2OK 51.627 40.748 -6.456 hc 154 NIL_154    0.023
2148 H2OL 50.369 39.507 -6.350 hc 154 NIL_154    0.023
2149 H2OM 48.505 39.770 -4.577 h1 154 NIL_154    0.047
2150 H2ON 49.737 39.951 -3.395 h1 154 NIL_154    0.047
2151 H2OO 50.619 41.991 -4.561 hc 154 NIL_154    0.028
2152 H2OP 49.435 41.750 -5.847 hc 154 NIL_154    0.028
2153 C243 47.384 41.833 0.176 c3 155 NIL_155    0.007
2154 C244 47.783 42.592 -1.098 c3 155 NIL_155    0.105
2155 C245 46.170 42.622 0.747 c3 155 NIL_155    0.131
2156 N0IO 46.505 42.995 -1.637 n 155 NIL_155   -0.285
2157 C246 48.682 41.785 -2.002 c 155 NIL_155    0.510
2158 C247 45.754 43.502 -0.484 c3 155 NIL_155    0.046
2159 C248 46.718 43.508 1.876 c 155 NIL_155    0.510
2160 N0IP 45.129 41.655 1.253 n 155 NIL_155   -0.284
2161 O0HP 49.788 41.476 -1.599 o 155 NIL_155   -0.549
2162 O0HQ 47.198 44.610 1.690 o 155 NIL_155   -0.544
2163 H2NN 44.690 43.489 -0.686 h1 155 NIL_155    0.050
2164 H2NO 46.030 44.550 -0.349 h1 155 NIL_155    0.050
2165 H2NP 48.339 43.495 -0.830 h1 155 NIL_155    0.061
2166 H2NQ 47.086 40.815 -0.091 hc 155 NIL_155    0.032
2167 H2NR 48.219 41.770 0.880 hc 155 NIL_155    0.032
2168 C25B 34.988 39.743 17.666 c3 156 NIL_156    0.104
2169 N0IY 35.532 40.352 18.881 n 156 NIL_156   -0.286
2170 C25C 34.471 38.361 18.088 c3 156 NIL_156   -0.005
2171 C25D 33.982 40.628 16.956 c 156 NIL_156    0.510
2172 C25E 35.727 39.308 19.898 c3 156 NIL_156    0.034
2173 C25F 35.445 37.957 19.208 c3 156 NIL_156    0.040
2174 O0HX 33.077 40.190 16.275 o 156 NIL_156   -0.552
2175 N0IZ 36.698 37.399 18.681 n 156 NIL_156   -0.310
2176 H2PN 34.993 37.242 19.900 h1 156 NIL_156    0.052
2177 H2PO 35.005 39.468 20.704 h1 156 NIL_156    0.049
2178 H2PP 36.743 39.347 20.304 h1 156 NIL_156    0.049
2179 H2PQ 34.454 37.655 17.255 hc 156 NIL_156    0.031
2180 H2PR 33.461 38.446 18.500 hc 156 NIL_156    0.031
2181 H2PS 35.823 39.613 16.971 h1 156 NIL_156    0.061
2182 H2PT 37.522 37.970 18.794 hn 156 NIL_156    0.150
2183 N0IA 35.876 38.741 -3.167 n 157 NIL_157   -0.284
2184 C230 37.149 38.289 -3.844 c3 157 NIL_157    0.131
2185 C231 37.961 39.528 -4.329 c3 157 NIL_157    0.007
2186 C232 36.926 37.502 -5.173 c3 157 NIL_157    0.046
2187 C233 38.055 37.407 -2.964 c 157 NIL_157    0.510
2188 C234 37.509 39.713 -5.787 c3 157 NIL_157    0.105
2189 N0IB 37.370 38.361 -6.280 n 157 NIL_157   -0.285
2190 O0HD 39.108 36.963 -3.385 o 157 NIL_157   -0.544
2191 C235 38.315 40.657 -6.648 c 157 NIL_157    0.510
2192 O0HE 38.712 41.707 -6.179 o 157 NIL_157   -0.549
2193 H2MJ 36.518 40.153 -5.803 h1 157 NIL_157    0.061
2194 H2MK 37.504 36.573 -5.196 h1 157 NIL_157    0.050
2195 H2ML 35.877 37.235 -5.310 h1 157 NIL_157    0.050
2196 H2MM 39.036 39.329 -4.320 hc 157 NIL_157    0.032
2197 H2MN 37.788 40.413 -3.716 hc 157 NIL_157    0.032
2198 O0H8 36.988 50.836 18.870 o 158 NIL_158   -0.557
2199 C22D 37.338 49.775 18.391 c 158 NIL_158    0.510
2200 C22E 36.364 48.817 17.699 c3 158 NIL_158    0.090
2201 N0I5 35.325 49.327 16.754 n3 158 NIL_158   -0.290
2202 C22F 37.027 47.656 16.931 c3 158 NIL_158    0.003
2203 C22G 35.150 48.299 15.686 c3 158 NIL_158    0.029
2204 C22H 35.871 47.001 16.148 c3 158 NIL_158    0.128
2205 N0I6 36.414 46.082 15.088 n 158 NIL_158   -0.275
2206 C22I 35.017 46.210 17.153 c 158 NIL_158    0.510
2207 O0H9 34.024 46.661 17.692 o 158 NIL_158   -0.545
2208 H2LV 35.641 48.689 14.792 h1 158 NIL_158    0.046
2209 H2LW 34.094 48.125 15.465 h1 158 NIL_158    0.046
2210 H2LX 37.772 48.053 16.237 hc 158 NIL_158    0.032
2211 H2LY 37.524 46.956 17.607 hc 158 NIL_158    0.032
2212 H2LZ 35.824 48.363 18.534 h1 158 NIL_158    0.057
2213 C255 42.694 46.490 -9.030 c3 159 NIL_159    0.015
2214 C256 43.288 47.589 -9.945 c3 159 NIL_159   -0.040
2215 C257 44.091 48.640 -9.155 c3 159 NIL_159   -0.064
2216 H2P9 44.564 49.345 -9.843 hc 159 NIL_159    0.023
2217 H2PA 44.875 48.160 -8.565 hc 159 NIL_159    0.023
2218 H2PB 43.444 49.203 -8.479 hc 159 NIL_159    0.023
2219 H2PC 42.509 48.076 -10.532 hc 159 NIL_159    0.028
2220 H2PD 43.954 47.112 -10.666 hc 159 NIL_159    0.028
2221 H2PE 42.264 45.718 -9.663 h1 159 NIL_159    0.047
2222 H2PF 43.533 46.001 -8.532 h1 159 NIL_159    0.047
2223 O0HA 46.282 41.831 -17.753 o 160 NIL_160   -0.535
2224 C22J 46.061 42.445 -16.724 c 160 NIL_160    0.510
2225 C22K 45.756 43.846 -16.876 c2 160 NIL_160    0.037
2226 C22L 45.307 44.279 -18.067 c2 160 NIL_160   -0.049
2227 C22M 45.819 44.756 -15.885 c2 160 NIL_160   -0.049
2228 C22N 44.907 45.537 -18.249 c2 160 NIL_160   -0.057
2229 C22O 45.421 46.016 -16.070 c2 160 NIL_160   -0.057
2230 C22P 44.945 46.418 -17.247 c2 160 NIL_160   -0.031
2231 C22Q 44.408 47.824 -17.442 c3 160 NIL_160    0.036
2232 N0I7 43.319 48.203 -16.531 n 160 NIL_160   -0.310
2233 C22R 42.230 47.452 -16.244 c 160 NIL_160    0.510
2234 C22S 41.223 48.142 -15.334 c3 160 NIL_160    0.105
2235 O0HB 42.082 46.317 -16.659 o 160 NIL_160   -0.553
2236 N0I8 39.837 47.641 -15.431 n 160 NIL_160   -0.283
2237 C22T 41.653 47.995 -13.858 c3 160 NIL_160    0.007
2238 C22U 39.291 47.530 -14.072 c3 160 NIL_160    0.046
2239 C22V 40.333 48.018 -13.033 c3 160 NIL_160    0.131
2240 N0I9 39.993 49.393 -12.499 n 160 NIL_160   -0.284
2241 C22W 40.356 46.912 -11.959 c 160 NIL_160    0.510
2242 C22X 40.209 50.566 -13.404 c3 160 NIL_160    0.015
2243 O0HC 40.838 45.812 -12.167 o 160 NIL_160   -0.544
2244 C22Y 39.050 50.923 -14.364 c3 160 NIL_160   -0.040
2245 C22Z 37.700 51.137 -13.651 c3 160 NIL_160   -0.064
2246 H2M0 36.952 51.484 -14.362 hc 160 NIL_160    0.023
2247 H2M1 37.795 51.887 -12.863 hc 160 NIL_160    0.023
2248 H2M2 37.337 50.207 -13.208 hc 160 NIL_160    0.023
2249 H2M3 38.933 50.159 -15.131 hc 160 NIL_160    0.028
2250 H2M4 39.315 51.845 -14.886 hc 160 NIL_160    0.028
2251 H2M5 41.119 50.453 -13.986 h1 160 NIL_160    0.047
2252 H2M6 40.400 51.450 -12.791 h1 160 NIL_160    0.047
2253 H2M7 39.041 46.480 -13.895 h1 160 NIL_160    0.050
2254 H2M8 38.377 48.124 -13.989 h1 160 NIL_160    0.050
2255 H2M9 42.172 47.039 -13.751 hc 160 NIL_160    0.032
2256 H2MA 42.367 48.763 -13.551 hc 160 NIL_160    0.032
2257 H2MB 41.209 49.196 -15.619 h1 160 NIL_160    0.061
2258 H2MC 45.220 48.544 -17.316 h1 160 NIL_160    0.052
2259 H2MD 44.026 47.932 -18.461 h1 160 NIL_160    0.052
2260 H2ME 45.463 46.711 -15.234 ha 160 NIL_160    0.063
2261 H2MF 44.520 45.833 -19.219 ha 160 NIL_160    0.063
2262 H2MG 46.192 44.524 -14.901 ha 160 NIL_160    0.063
2263 H2MH 45.215 43.603 -18.914 ha 160 NIL_160    0.063
2264 H2MI 43.365 49.131 -16.138 hn 160 NIL_160    0.150
2265 C202 38.255 46.251 -16.756 c2 161 NIL_161    0.037
2266 C203 39.248 47.272 -16.607 c 161 NIL_161    0.510
2267 C204 37.290 45.998 -15.857 c2 161 NIL_161   -0.049
2268 C205 38.331 45.457 -17.834 c2 161 NIL_161   -0.049
2269 O0GL 39.661 47.774 -17.639 o 161 NIL_161   -0.535
2270 C206 36.449 44.974 -16.026 c2 161 NIL_161   -0.057
2271 C207 37.495 44.434 -17.995 c2 161 NIL_161   -0.057
2272 C208 36.551 44.173 -17.088 c2 161 NIL_161   -0.031
2273 C209 35.629 42.984 -17.271 c3 161 NIL_161    0.036
2274 N0HI 35.831 41.853 -16.356 n 161 NIL_161   -0.310
2275 C20A 37.009 41.230 -16.113 c 161 NIL_161    0.510
2276 C20B 36.867 39.920 -15.348 c3 161 NIL_161    0.105
2277 O0GM 38.083 41.676 -16.472 o 161 NIL_161   -0.553
2278 N0HJ 37.840 38.856 -15.678 n 161 NIL_161   -0.283
2279 C20C 37.008 40.153 -13.832 c3 161 NIL_161    0.007
2280 C20D 38.129 38.121 -14.436 c3 161 NIL_161    0.046
2281 C20E 37.373 38.770 -13.243 c3 161 NIL_161    0.131
2282 N0HK 36.101 38.105 -12.813 n 161 NIL_161   -0.284
2283 C20F 38.389 38.903 -12.094 c 161 NIL_161    0.510
2284 C20G 35.208 37.555 -13.863 c3 161 NIL_161    0.015
2285 O0GN 39.461 39.459 -12.238 o 161 NIL_161   -0.544
2286 C20H 34.795 36.088 -13.605 c3 161 NIL_161   -0.040
2287 C20I 35.988 35.114 -13.611 c3 161 NIL_161   -0.064
2288 H2JH 36.747 35.412 -12.885 hc 161 NIL_161    0.023
2289 H2JI 36.447 35.074 -14.600 hc 161 NIL_161    0.023
2290 H2JJ 35.648 34.110 -13.348 hc 161 NIL_161    0.023
2291 H2JK 34.084 35.784 -14.375 hc 161 NIL_161    0.028
2292 H2JL 34.275 36.013 -12.648 hc 161 NIL_161    0.028
2293 H2JM 35.682 37.583 -14.842 h1 161 NIL_161    0.047
2294 H2JN 34.312 38.181 -13.912 h1 161 NIL_161    0.047
2295 H2JO 39.200 38.196 -14.251 h1 161 NIL_161    0.050
2296 H2JP 37.859 37.067 -14.555 h1 161 NIL_161    0.050
2297 H2JQ 37.811 40.873 -13.649 hc 161 NIL_161    0.032
2298 H2JR 36.089 40.559 -13.403 hc 161 NIL_161    0.032
2299 H2JS 35.869 39.534 -15.568 h1 161 NIL_161    0.061
2300 H2JT 34.595 43.318 -17.161 h1 161 NIL_161    0.052
2301 H2JU 35.731 42.597 -18.289 h1 161 NIL_161    0.052
2302 H2JV 37.603 43.797 -18.869 ha 161 NIL_161    0.063
2303 H2JW 35.681 44.785 -15.279 ha 161 NIL_161    0.063
2304 H2JX 39.107 45.604 -18.582 ha 161 NIL_161    0.063
2305 H2JY 37.150 46.618 -14.982 ha 161 NIL_161    0.063
2306 H2JZ 34.991 41.431 -15.988 hn 161 NIL_161    0.150
2307 C25Y 46.260 43.691 14.469 c3 162 NIL_162    0.092
2308 C25Z 46.669 44.308 13.147 c 162 NIL_162    0.510
2309 O0HZ 46.630 45.504 12.923 o 162 NIL_162   -0.557
2310 H2QY 45.364 43.095 14.274 h1 162 NIL_162    0.057
2311 H2QZ 47.041 42.994 14.781 h1 162 NIL_162    0.057
2312 C212 37.365 38.621 0.086 c3 163 NIL_163    0.007
2313 C213 36.610 37.828 -0.989 c3 163 NIL_163    0.105
2314 C214 38.456 37.620 0.574 c3 163 NIL_163    0.131
2315 N0HR 37.668 37.136 -1.694 n 163 NIL_163   -0.285
2316 C215 35.655 38.644 -1.826 c 163 NIL_163    0.510
2317 C216 38.543 36.613 -0.632 c3 163 NIL_163    0.046
2318 C217 37.799 36.925 1.781 c 163 NIL_163    0.510
2319 N0HS 39.743 38.336 0.929 n 163 NIL_163   -0.284
2320 O0GU 34.681 39.144 -1.295 o 163 NIL_163   -0.549
2321 O0GV 37.011 36.003 1.676 o 163 NIL_163   -0.544
2322 H2KJ 39.550 36.450 -1.002 h1 163 NIL_163    0.050
2323 H2KK 38.171 35.625 -0.352 h1 163 NIL_163    0.050
2324 H2KL 35.989 37.072 -0.502 h1 163 NIL_163    0.061
2325 H2KM 37.803 39.520 -0.352 hc 163 NIL_163    0.032
2326 H2KN 36.697 38.943 0.889 hc 163 NIL_163    0.032
2327 C21N 40.048 47.184 5.203 c3 164 NIL_164    0.007
2328 C21O 39.924 47.830 3.810 c3 164 NIL_164    0.105
2329 C21P 38.625 47.290 5.825 c3 164 NIL_164    0.131
2330 N0HX 38.561 47.564 3.387 n 164 NIL_164   -0.285
2331 C21Q 40.999 47.402 2.837 c 164 NIL_164    0.510
2332 C21R 37.704 47.473 4.581 c3 164 NIL_164    0.046
2333 N0HY 38.494 48.428 6.808 n 164 NIL_164   -0.284
2334 C21S 38.260 45.915 6.404 c 164 NIL_164    0.510
2335 O0H0 42.146 47.272 3.223 o 164 NIL_164   -0.549
2336 O0H1 38.283 44.897 5.737 o 164 NIL_164   -0.547
2337 H2L6 37.024 46.624 4.458 h1 164 NIL_164    0.050
2338 H2L7 37.086 48.366 4.673 h1 164 NIL_164    0.050
2339 H2L8 40.024 48.914 3.885 h1 164 NIL_164    0.061
2340 H2L9 40.342 46.140 5.068 hc 164 NIL_164    0.032
2341 H2LA 40.821 47.653 5.816 hc 164 NIL_164    0.032
2342 C25P 42.595 43.369 0.858 c3 165 NIL_165   -0.064
2343 C25Q 42.666 41.835 0.778 c3 165 NIL_165   -0.040
2344 C25R 44.034 41.256 0.337 c3 165 NIL_165    0.015
2345 H2QD 43.961 40.164 0.349 h1 165 NIL_165    0.047
2346 H2QE 44.243 41.523 -0.698 h1 165 NIL_165    0.047
2347 H2QF 42.411 41.436 1.760 hc 165 NIL_165    0.028
2348 H2QG 41.897 41.496 0.090 hc 165 NIL_165    0.028
2349 H2QH 42.661 43.811 -0.137 hc 165 NIL_165    0.023
2350 H2QI 43.394 43.768 1.486 hc 165 NIL_165    0.023
2351 H2QJ 41.640 43.671 1.295 hc 165 NIL_165    0.023
2352 C1ZI 41.519 39.733 -2.268 c3 166 NIL_166   -0.064
2353 C1ZJ 40.381 39.558 -1.244 c3 166 NIL_166   -0.040
2354 C1ZK 40.762 38.537 -0.149 c3 166 NIL_166    0.015
2355 H2IR 41.036 37.587 -0.603 h1 166 NIL_166    0.047
2356 H2IS 41.691 38.895 0.300 h1 166 NIL_166    0.047
2357 H2IT 40.137 40.520 -0.790 hc 166 NIL_166    0.028
2358 H2IU 39.494 39.232 -1.777 hc 166 NIL_166    0.028
2359 H2IV 42.424 40.112 -1.793 hc 166 NIL_166    0.023
2360 H2IW 41.222 40.439 -3.046 hc 166 NIL_166    0.023
2361 H2IX 41.757 38.778 -2.742 hc 166 NIL_166    0.023
2362 C23L 47.085 43.655 4.354 c3 167 NIL_167    0.046
2363 C23M 46.584 42.820 5.565 c3 167 NIL_167    0.131
2364 N0II 46.647 42.992 3.124 n 167 NIL_167   -0.285
2365 C23N 45.851 41.605 4.917 c3 167 NIL_167    0.007
2366 N0IJ 47.708 42.373 6.458 n 167 NIL_167   -0.284
2367 C23O 45.520 43.678 6.261 c 167 NIL_167    0.510
2368 C23P 46.247 41.626 3.429 c3 167 NIL_167    0.105
2369 O0HJ 44.537 44.095 5.677 o 167 NIL_167   -0.547
2370 C23Q 45.203 41.075 2.484 c 167 NIL_167    0.510
2371 O0HK 44.458 40.177 2.831 o 167 NIL_167   -0.549
2372 H2N7 47.124 40.993 3.276 h1 167 NIL_167    0.061
2373 H2N8 44.766 41.704 5.002 hc 167 NIL_167    0.032
2374 H2N9 46.119 40.652 5.380 hc 167 NIL_167    0.032
2375 H2NA 46.687 44.673 4.377 h1 167 NIL_167    0.050
2376 H2NB 48.170 43.721 4.344 h1 167 NIL_167    0.050
2377 C20W 39.133 36.232 5.917 c 168 NIL_168    0.510
2378 C20X 38.435 37.498 5.412 c3 168 NIL_168    0.131
2379 O0GS 39.735 35.482 5.172 o 168 NIL_168   -0.547
2380 C20Y 39.499 38.367 4.671 c3 168 NIL_168    0.007
2381 C20Z 37.488 37.020 4.274 c3 168 NIL_168    0.046
2382 N0HP 37.719 38.276 6.479 n 168 NIL_168   -0.284
2383 C210 38.945 38.566 3.247 c3 168 NIL_168    0.105
2384 N0HQ 38.099 37.417 3.001 n 168 NIL_168   -0.285
2385 C211 39.989 38.819 2.183 c 168 NIL_168    0.510
2386 O0GT 41.006 39.423 2.464 o 168 NIL_168   -0.549
2387 H2KE 38.297 39.444 3.221 h1 168 NIL_168    0.061
2388 H2KF 37.339 35.936 4.299 h1 168 NIL_168    0.050
2389 H2KG 36.511 37.499 4.344 h1 168 NIL_168    0.050
2390 H2KH 40.461 37.851 4.615 hc 168 NIL_168    0.032
2391 H2KI 39.682 39.325 5.163 hc 168 NIL_168    0.032
2392 C20L 46.787 39.242 17.925 c3 169 NIL_169    0.104
2393 N0HL 46.167 39.276 19.250 n 169 NIL_169   -0.286
2394 C20M 48.298 39.376 18.175 c3 169 NIL_169   -0.005
2395 C20N 46.347 38.054 17.092 c 169 NIL_169    0.510
2396 C20O 47.133 39.802 20.223 c3 169 NIL_169    0.034
2397 C20P 48.348 40.289 19.413 c3 169 NIL_169    0.040
2398 O0GP 47.046 37.546 16.239 o 169 NIL_169   -0.552
2399 N0HM 48.163 41.694 19.024 n 169 NIL_169   -0.310
2400 H2K2 49.280 40.171 19.975 h1 169 NIL_169    0.052
2401 H2K3 47.436 38.987 20.885 h1 169 NIL_169    0.049
2402 H2K4 46.692 40.611 20.813 h1 169 NIL_169    0.049
2403 H2K5 48.830 39.795 17.315 hc 169 NIL_169    0.031
2404 H2K6 48.730 38.403 18.420 hc 169 NIL_169    0.031
2405 H2K7 46.440 40.130 17.387 h1 169 NIL_169    0.061
2406 H2K8 47.209 42.000 18.902 hn 169 NIL_169    0.150
2407 O0H4 41.329 35.008 18.159 o 170 NIL_170   -0.545
2408 C21Z 41.247 36.075 17.579 c 170 NIL_170    0.510
2409 C220 40.267 36.349 16.425 c3 170 NIL_170    0.128
2410 C221 39.010 37.007 17.032 c3 170 NIL_170    0.003
2411 C222 39.643 35.014 15.913 c3 170 NIL_170    0.029
2412 N0I1 40.908 37.259 15.412 n 170 NIL_170   -0.275
2413 C223 38.269 35.842 17.709 c3 170 NIL_170    0.090
2414 N0I2 38.452 34.726 16.757 n3 170 NIL_170   -0.290
2415 C224 36.840 36.189 18.096 c 170 NIL_170    0.510
2416 O0H5 35.900 35.442 17.902 o 170 NIL_170   -0.557
2417 H2LG 38.789 35.608 18.643 h1 170 NIL_170    0.057
2418 H2LH 39.270 35.115 14.893 h1 170 NIL_170    0.046
2419 H2LI 40.376 34.203 15.937 h1 170 NIL_170    0.046
2420 H2LJ 38.384 37.436 16.246 hc 170 NIL_170    0.032
2421 H2LK 39.251 37.796 17.747 hc 170 NIL_170    0.032
2422 C258 42.444 47.736 -0.186 c3 171 NIL_171   -0.040
2423 C259 41.669 46.656 0.593 c3 171 NIL_171    0.015
2424 C25A 43.588 47.096 -0.995 c3 171 NIL_171   -0.064
2425 H2PG 44.119 47.856 -1.573 hc 171 NIL_171    0.023
2426 H2PH 43.196 46.347 -1.688 hc 171 NIL_171    0.023
2427 H2PI 44.305 46.610 -0.329 hc 171 NIL_171    0.023
2428 H2PJ 41.259 45.945 -0.118 h1 171 NIL_171    0.047
2429 H2PK 42.403 46.088 1.171 h1 171 NIL_171    0.047
2430 H2PL 42.857 48.471 0.509 hc 171 NIL_171    0.028
2431 H2PM 41.779 48.259 -0.873 hc 171 NIL_171    0.028
2432 C20Q 40.029 47.908 -3.604 c3 172 NIL_172    0.131
2433 C20R 41.415 47.623 -4.268 c3 172 NIL_172    0.007
2434 C20S 39.044 47.561 -4.758 c3 172 NIL_172    0.046
2435 N0HN 39.858 49.345 -3.152 n 172 NIL_172   -0.284
2436 C20T 39.741 46.872 -2.500 c 172 NIL_172    0.510
2437 C20U 41.180 47.850 -5.775 c3 172 NIL_172    0.105
2438 N0HO 39.800 47.470 -6.015 n 172 NIL_172   -0.285
2439 O0GQ 40.059 45.701 -2.606 o 172 NIL_172   -0.544
2440 C20V 42.169 47.210 -6.721 c 172 NIL_172    0.510
2441 O0GR 43.306 46.961 -6.362 o 172 NIL_172   -0.549
2442 H2K9 41.253 48.911 -6.013 h1 172 NIL_172    0.061
2443 H2KA 38.566 46.591 -4.591 h1 172 NIL_172    0.050
2444 H2KB 38.259 48.317 -4.843 h1 172 NIL_172    0.050
2445 H2KC 41.718 46.582 -4.136 hc 172 NIL_172    0.032
2446 H2KD 42.220 48.243 -3.869 hc 172 NIL_172    0.032
2447 C25V 41.339 41.671 -7.753 c3 173 NIL_173   -0.064
2448 C25W 40.565 41.477 -9.072 c3 173 NIL_173   -0.040
2449 C25X 39.023 41.339 -8.917 c3 173 NIL_173    0.015
2450 H2QR 38.623 42.313 -8.622 h1 173 NIL_173    0.047
2451 H2QS 38.614 41.138 -9.909 h1 173 NIL_173    0.047
2452 H2QT 40.760 42.341 -9.711 hc 173 NIL_173    0.028
2453 H2QU 40.981 40.622 -9.602 hc 173 NIL_173    0.028
2454 H2QV 42.408 41.749 -7.965 hc 173 NIL_173    0.023
2455 H2QW 41.193 40.822 -7.081 hc 173 NIL_173    0.023
2456 H2QX 41.023 42.584 -7.245 hc 173 NIL_173    0.023
2457 C25G 33.735 41.450 -4.974 c3 174 NIL_174   -0.064
2458 C25H 34.717 40.884 -3.931 c3 174 NIL_174   -0.040
2459 C25I 34.810 39.341 -4.024 c3 174 NIL_174    0.015
2460 H2PU 33.848 38.917 -3.720 h1 174 NIL_174    0.047
2461 H2PV 34.938 39.069 -5.071 h1 174 NIL_174    0.047
2462 H2PW 35.695 41.339 -4.089 hc 174 NIL_174    0.028
2463 H2PX 34.388 41.179 -2.932 hc 174 NIL_174    0.028
2464 H2PY 32.735 41.031 -4.840 hc 174 NIL_174    0.023
2465 H2PZ 34.072 41.223 -5.989 hc 174 NIL_174    0.023
2466 H2Q0 33.666 42.534 -4.872 hc 174 NIL_174    0.023
2467 C1ZL 44.696 39.732 -16.369 c 175 NIL_175    0.510
2468 C1ZM 45.844 40.249 -15.513 c3 175 NIL_175    0.105
2469 O0GI 43.771 40.436 -16.727 o 175 NIL_175   -0.553
2470 N0HF 44.788 38.417 -16.683 n 175 NIL_175   -0.310
2471 N0HG 46.056 41.713 -15.566 n 175 NIL_175   -0.283
2472 C1ZN 45.622 39.866 -14.032 c3 175 NIL_175    0.007
2473 C1ZO 43.934 37.694 -17.637 c3 175 NIL_175    0.036
2474 C1ZP 46.193 42.202 -14.191 c3 175 NIL_175    0.046
2475 C1ZQ 46.255 41.017 -13.202 c3 175 NIL_175    0.131
2476 C1ZR 42.437 37.878 -17.471 c2 175 NIL_175   -0.031
2477 N0HH 47.684 40.752 -12.782 n 175 NIL_175   -0.284
2478 C1ZS 45.325 41.436 -12.049 c 175 NIL_175    0.510
2479 C1ZT 41.752 37.212 -16.538 c2 175 NIL_175   -0.057
2480 C1ZU 41.777 38.732 -18.254 c2 175 NIL_175   -0.057
2481 C1ZV 48.578 40.036 -13.742 c3 175 NIL_175    0.015
2482 O0GJ 44.111 41.400 -12.136 o 175 NIL_175   -0.544
2483 C1ZW 40.445 37.425 -16.366 c2 175 NIL_175   -0.049
2484 C1ZX 40.474 38.949 -18.082 c2 175 NIL_175   -0.049
2485 C1ZY 49.427 40.964 -14.642 c3 175 NIL_175   -0.040
2486 C1ZZ 39.785 38.319 -17.120 c2 175 NIL_175    0.037
2487 C200 50.218 40.146 -15.683 c3 175 NIL_175   -0.064
2488 C201 38.421 38.704 -16.906 c 175 NIL_175    0.510
2489 O0GK 37.789 39.039 -17.892 o 175 NIL_175   -0.535
2490 H2IY 50.874 39.423 -15.192 hc 175 NIL_175    0.023
2491 H2IZ 50.835 40.805 -16.298 hc 175 NIL_175    0.023
2492 H2J0 49.539 39.602 -16.344 hc 175 NIL_175    0.023
2493 H2J1 50.127 41.536 -14.028 hc 175 NIL_175    0.028
2494 H2J2 48.797 41.680 -15.171 hc 175 NIL_175    0.028
2495 H2J3 39.997 39.694 -18.715 ha 175 NIL_175    0.063
2496 H2J4 39.940 36.845 -15.605 ha 175 NIL_175    0.063
2497 H2J5 48.028 39.345 -14.372 h1 175 NIL_175    0.047
2498 H2J6 49.265 39.406 -13.167 h1 175 NIL_175    0.047
2499 H2J7 42.308 39.291 -19.020 ha 175 NIL_175    0.063
2500 H2J8 42.265 36.503 -15.890 ha 175 NIL_175    0.063
2501 H2J9 45.318 42.822 -13.976 h1 175 NIL_175    0.050
2502 H2JA 47.099 42.807 -14.096 h1 175 NIL_175    0.050
2503 H2JB 44.176 36.632 -17.554 h1 175 NIL_175    0.052
2504 H2JC 44.228 38.012 -18.639 h1 175 NIL_175    0.052
2505 H2JD 44.547 39.790 -13.856 hc 175 NIL_175    0.032
2506 H2JE 46.034 38.885 -13.783 hc 175 NIL_175    0.032
2507 H2JF 46.753 39.774 -15.887 h1 175 NIL_175    0.061
2508 H2JG 45.576 37.904 -16.317 hn 175 NIL_175    0.150
2509 O0H2 47.830 46.889 17.808 o 176 NIL_176   -0.545
2510 C21T 46.913 46.319 17.246 c 176 NIL_176    0.510
2511 C21U 47.099 44.994 16.485 c3 176 NIL_176    0.128
2512 C21V 47.223 43.852 17.516 c3 176 NIL_176    0.003
2513 C21W 48.524 44.995 15.857 c3 176 NIL_176    0.029
2514 N0HZ 45.983 44.703 15.517 n 176 NIL_176   -0.275
2515 C21X 48.686 43.863 18.023 c3 176 NIL_176    0.090
2516 N0I0 49.448 44.488 16.899 n3 176 NIL_176   -0.290
2517 C21Y 49.146 42.536 18.640 c 176 NIL_176    0.510
2518 O0H3 50.315 42.249 18.816 o 176 NIL_176   -0.557
2519 H2LB 48.719 44.571 18.857 h1 176 NIL_176    0.057
2520 H2LC 48.588 44.335 14.998 h1 176 NIL_176    0.046
2521 H2LD 48.819 45.996 15.528 h1 176 NIL_176    0.046
2522 H2LE 47.026 42.900 17.020 hc 176 NIL_176    0.032
2523 H2LF 46.503 43.957 18.332 hc 176 NIL_176    0.032
2524 C25S 50.536 43.171 5.483 c3 177 NIL_177   -0.064
2525 C25T 50.177 41.753 5.962 c3 177 NIL_177   -0.040
2526 C25U 48.669 41.413 5.839 c3 177 NIL_177    0.015
2527 H2QK 48.469 41.317 4.775 h1 177 NIL_177    0.047
2528 H2QL 48.503 40.430 6.290 h1 177 NIL_177    0.047
2529 H2QM 50.740 41.033 5.362 hc 177 NIL_177    0.028
2530 H2QN 50.517 41.626 6.991 hc 177 NIL_177    0.028
2531 H2QO 50.028 43.925 6.089 hc 177 NIL_177    0.023
2532 H2QP 50.261 43.305 4.436 hc 177 NIL_177    0.023
2533 H2QQ 51.612 43.335 5.567 hc 177 NIL_177    0.023
2534 C23R 37.950 39.057 -8.570 c3 178 NIL_178    0.131
2535 C23S 36.608 39.286 -9.336 c3 178 NIL_178    0.007
2536 C23T 38.865 38.446 -9.677 c3 178 NIL_178    0.046
2537 N0IK 38.513 40.315 -7.955 n 178 NIL_178   -0.284
2538 C23U 37.610 37.965 -7.543 c 178 NIL_178    0.510
2539 C23V 36.684 38.232 -10.452 c3 178 NIL_178    0.105
2540 N0IL 38.058 38.350 -10.902 n 178 NIL_178   -0.285
2541 O0HL 37.530 36.784 -7.830 o 178 NIL_178   -0.544
2542 C23W 35.638 38.269 -11.544 c 178 NIL_178    0.510
2543 O0HM 34.454 38.337 -11.281 o 178 NIL_178   -0.549
2544 H2NC 36.564 37.235 -10.019 h1 178 NIL_178    0.061
2545 H2ND 39.751 39.041 -9.855 h1 178 NIL_178    0.050
2546 H2NE 39.213 37.446 -9.408 h1 178 NIL_178    0.050
2547 H2NF 36.551 40.285 -9.774 hc 178 NIL_178    0.032
2548 H2NG 35.735 39.141 -8.694 hc 178 NIL_178    0.032
2549 C23G 40.851 49.200 19.561 c3 179 NIL_179    0.034
2550 C23H 39.723 50.127 19.068 c3 179 NIL_179    0.040
2551 N0IG 41.808 49.063 18.457 n 179 NIL_179   -0.286
2552 C23I 40.423 50.951 17.976 c3 179 NIL_179   -0.005
2553 N0IH 38.616 49.344 18.504 n 179 NIL_179   -0.310
2554 C23J 41.402 49.941 17.358 c3 179 NIL_179    0.104
2555 C23K 42.573 50.545 16.606 c 179 NIL_179    0.510
2556 O0HI 42.500 51.598 16.005 o 179 NIL_179   -0.552
2557 H2N0 40.864 49.322 16.634 h1 179 NIL_179    0.061
2558 H2N1 39.726 51.357 17.238 hc 179 NIL_179    0.031
2559 H2N2 40.974 51.776 18.436 hc 179 NIL_179    0.031
2560 H2N3 39.357 50.764 19.879 h1 179 NIL_179    0.052
2561 H2N4 41.365 49.665 20.407 h1 179 NIL_179    0.049
2562 H2N5 40.464 48.222 19.861 h1 179 NIL_179    0.049
2563 H2N6 38.851 48.438 18.127 hn 179 NIL_179    0.150
2564 C25J 37.651 47.039 13.117 c 180 NIL_180    0.510
2565 C25K 36.345 46.492 13.661 c3 180 NIL_180    0.092
2566 O0HY 38.552 47.445 13.826 o 180 NIL_180   -0.557
2567 H2Q1 35.553 47.212 13.459 h1 180 NIL_180    0.057
2568 H2Q2 36.104 45.609 13.062 h1 180 NIL_180    0.057
2569 C0IK 7.438 21.850 -4.000 c3 181 NIL_181    0.015
2570 C0IL 6.473 22.379 -5.085 c3 181 NIL_181   -0.040
2571 C0IM 7.129 23.510 -5.895 c3 181 NIL_181   -0.064
2572 H0MT 6.422 23.906 -6.628 hc 181 NIL_181    0.023
2573 H0MU 8.007 23.138 -6.428 hc 181 NIL_181    0.023
2574 H0MV 7.439 24.328 -5.240 hc 181 NIL_181    0.023
2575 H0MW 5.560 22.752 -4.613 hc 181 NIL_181    0.028
2576 H0MX 6.183 21.584 -5.772 hc 181 NIL_181    0.028
2577 H0MY 8.383 21.555 -4.449 h1 181 NIL_181    0.047
2578 H0MZ 7.703 22.692 -3.352 h1 181 NIL_181    0.047
2579 C0F5 7.048 18.605 5.203 c3 182 NIL_182    0.007
2580 C0F6 6.924 19.251 3.810 c3 182 NIL_182    0.105
2581 C0F7 5.625 18.711 5.825 c3 182 NIL_182    0.131
2582 N03O 5.561 18.985 3.387 n 182 NIL_182   -0.285
2583 C0F8 7.999 18.823 2.837 c 182 NIL_182    0.510
2584 C0F9 4.704 18.894 4.581 c3 182 NIL_182    0.046
2585 N03P 5.494 19.849 6.808 n 182 NIL_182   -0.284
2586 C0FA 5.260 17.336 6.404 c 182 NIL_182    0.510
2587 O03I 9.146 18.693 3.223 o 182 NIL_182   -0.549
2588 O03J 5.283 16.318 5.737 o 182 NIL_182   -0.547
2589 H0IX 4.024 18.045 4.458 h1 182 NIL_182    0.050
2590 H0IY 4.086 19.787 4.673 h1 182 NIL_182    0.050
2591 H0IZ 7.024 20.335 3.885 h1 182 NIL_182    0.061
2592 H0J0 7.342 17.561 5.068 hc 182 NIL_182    0.032
2593 H0J1 7.821 19.074 5.816 hc 182 NIL_182    0.032
2594 N04N 4.747 18.429 11.770 n 183 NIL_183   -0.314
2595 C0IG 5.957 18.780 11.018 c3 183 NIL_183    0.013
2596 C0IH 6.059 18.013 9.681 c3 183 NIL_183   -0.010
2597 C0II 4.913 18.308 8.678 c3 183 NIL_183    0.101
2598 C0IJ 5.066 19.702 8.096 c 183 NIL_183    0.510
2599 N04O 4.873 17.242 7.687 n 183 NIL_183   -0.302
2600 O04E 4.823 20.667 8.798 o 183 NIL_183   -0.550
2601 H0MM 3.953 18.291 9.202 h1 183 NIL_183    0.061
2602 H0MN 7.018 18.243 9.209 hc 183 NIL_183    0.031
2603 H0MO 6.073 16.943 9.911 hc 183 NIL_183    0.031
2604 H0MP 6.831 18.524 11.622 h1 183 NIL_183    0.047
2605 H0MQ 5.972 19.858 10.843 h1 183 NIL_183    0.047
2606 H0MR 4.613 16.330 8.031 hn 183 NIL_183    0.150
2607 H0MS 3.960 18.091 11.237 hn 183 NIL_183    0.149
2608 C0I1 12.944 8.887 -9.057 c3 184 NIL_184   -0.064
2609 C0I2 12.205 9.959 -9.881 c3 184 NIL_184   -0.040
2610 C0I3 11.424 10.957 -8.992 c3 184 NIL_184    0.015
2611 H0LW 10.831 11.598 -9.638 h1 184 NIL_184    0.047
2612 H0LX 10.686 10.379 -8.430 h1 184 NIL_184    0.047
2613 H0LY 12.909 10.481 -10.530 hc 184 NIL_184    0.028
2614 H0LZ 11.495 9.463 -10.545 hc 184 NIL_184    0.028
2615 H0M0 13.404 8.154 -9.723 hc 184 NIL_184    0.023
2616 H0M1 12.248 8.360 -8.400 hc 184 NIL_184    0.023
2617 H0M2 13.729 9.333 -8.442 hc 184 NIL_184    0.023
2618 C0E3 13.787 10.663 17.925 c3 185 NIL_185    0.104
2619 N03C 13.167 10.697 19.250 n 185 NIL_185   -0.286
2620 C0E4 15.298 10.797 18.175 c3 185 NIL_185   -0.005
2621 C0E5 13.347 9.475 17.092 c 185 NIL_185    0.510
2622 C0E6 14.133 11.223 20.223 c3 185 NIL_185    0.034
2623 C0E7 15.348 11.710 19.413 c3 185 NIL_185    0.040
2624 O037 14.046 8.967 16.239 o 185 NIL_185   -0.552
2625 N03D 15.163 13.115 19.024 n 185 NIL_185   -0.310
2626 H0HT 16.280 11.592 19.975 h1 185 NIL_185    0.052
2627 H0HU 14.436 10.408 20.885 h1 185 NIL_185    0.049
2628 H0HV 13.692 12.032 20.813 h1 185 NIL_185    0.049
2629 H0HW 15.830 11.216 17.315 hc 185 NIL_185    0.031
2630 H0HX 15.730 9.824 18.420 hc 185 NIL_185    0.031
2631 H0HY 13.440 11.551 17.387 h1 185 NIL_185    0.061
2632 H0HZ 14.209 13.421 18.902 hn 185 NIL_185    0.150
2633 C0HR 5.906 8.626 10.789 c3 186 NIL_186    0.013
2634 N04H 6.915 8.427 11.835 n 186 NIL_186   -0.314
2635 C0HS 6.515 8.391 9.387 c3 186 NIL_186   -0.010
2636 C0HT 5.456 8.138 8.282 c3 186 NIL_186    0.101
2637 C0HU 4.784 9.421 7.815 c 186 NIL_186    0.510
2638 N04I 6.053 7.332 7.220 n 186 NIL_186   -0.302
2639 O049 4.295 10.176 8.634 o 186 NIL_186   -0.550
2640 H0LJ 4.653 7.526 8.704 h1 186 NIL_186    0.061
2641 H0LK 7.158 9.231 9.110 hc 186 NIL_186    0.031
2642 H0LL 7.160 7.510 9.451 hc 186 NIL_186    0.031
2643 H0LM 5.508 9.641 10.862 h1 186 NIL_186    0.047
2644 H0LN 5.094 7.913 10.961 h1 186 NIL_186    0.047
2645 H0LO 6.491 6.473 7.517 hn 186 NIL_186    0.150
2646 H0LP 7.821 8.101 11.530 hn 186 NIL_186    0.149
2647 C0IN 9.694 17.911 -9.030 c3 187 NIL_187    0.015
2648 C0IO 10.288 19.010 -9.945 c3 187 NIL_187   -0.040
2649 C0IP 11.091 20.061 -9.155 c3 187 NIL_187   -0.064
2650 H0N0 11.564 20.766 -9.843 hc 187 NIL_187    0.023
2651 H0N1 11.875 19.581 -8.565 hc 187 NIL_187    0.023
2652 H0N2 10.444 20.624 -8.479 hc 187 NIL_187    0.023
2653 H0N3 9.509 19.497 -10.532 hc 187 NIL_187    0.028
2654 H0N4 10.954 18.533 -10.666 hc 187 NIL_187    0.028
2655 H0N5 9.264 17.139 -9.663 h1 187 NIL_187    0.047
2656 H0N6 10.533 17.422 -8.532 h1 187 NIL_187    0.047
2657 C0D0 8.519 11.154 -2.268 c3 188 NIL_188   -0.064
2658 C0D1 7.381 10.979 -1.244 c3 188 NIL_188   -0.040
2659 C0D2 7.762 9.958 -0.149 c3 188 NIL_188    0.015
2660 H0GI 8.036 9.008 -0.603 h1 188 NIL_188    0.047
2661 H0GJ 8.691 10.316 0.300 h1 188 NIL_188    0.047
2662 H0GK 7.137 11.941 -0.790 hc 188 NIL_188    0.028
2663 H0GL 6.494 10.653 -1.777 hc 188 NIL_188    0.028
2664 H0GM 9.424 11.533 -1.793 hc 188 NIL_188    0.023
2665 H0GN 8.222 11.860 -3.046 hc 188 NIL_188    0.023
2666 H0GO 8.757 10.199 -2.742 hc 188 NIL_188    0.023
2667 C0JA 17.536 14.592 5.483 c3 189 NIL_189   -0.064
2668 C0JB 17.177 13.174 5.962 c3 189 NIL_189   -0.040
2669 C0JC 15.669 12.834 5.839 c3 189 NIL_189    0.015
2670 H0OB 15.469 12.738 4.775 h1 189 NIL_189    0.047
2671 H0OC 15.503 11.851 6.290 h1 189 NIL_189    0.047
2672 H0OD 17.740 12.454 5.362 hc 189 NIL_189    0.028
2673 H0OE 17.517 13.047 6.991 hc 189 NIL_189    0.028
2674 H0OF 17.028 15.346 6.089 hc 189 NIL_189    0.023
2675 H0OG 17.261 14.726 4.436 hc 189 NIL_189    0.023
2676 H0OH 18.612 14.756 5.567 hc 189 NIL_189    0.023
2677 C0GU 13.398 14.797 9.836 c3 190 NIL_190   -0.010
2678 C0GV 13.839 15.105 8.383 c3 190 NIL_190    0.101
2679 C0GW 14.493 15.152 10.865 c3 190 NIL_190    0.013
2680 C0GX 14.763 14.044 7.797 c 190 NIL_190    0.510
2681 N045 12.676 15.415 7.557 n 190 NIL_190   -0.302
2682 N046 14.078 14.827 12.232 n 190 NIL_190   -0.314
2683 O03Z 15.536 13.435 8.513 o 190 NIL_190   -0.550
2684 H0KK 15.410 14.597 10.658 h1 190 NIL_190    0.047
2685 H0KL 14.720 16.218 10.793 h1 190 NIL_190    0.047
2686 H0KM 14.431 16.023 8.399 h1 190 NIL_190    0.061
2687 H0KN 13.121 13.744 9.924 hc 190 NIL_190    0.031
2688 H0KO 12.506 15.383 10.080 hc 190 NIL_190    0.031
2689 H0KP 14.084 13.853 12.492 hn 190 NIL_190    0.149
2690 H0KQ 11.959 15.974 7.993 hn 190 NIL_190    0.150
2691 C0J7 9.595 14.790 0.858 c3 191 NIL_191   -0.064
2692 C0J8 9.666 13.256 0.778 c3 191 NIL_191   -0.040
2693 C0J9 11.034 12.677 0.337 c3 191 NIL_191    0.015
2694 H0O4 10.961 11.585 0.349 h1 191 NIL_191    0.047
2695 H0O5 11.243 12.944 -0.698 h1 191 NIL_191    0.047
2696 H0O6 9.411 12.857 1.760 hc 191 NIL_191    0.028
2697 H0O7 8.897 12.917 0.090 hc 191 NIL_191    0.028
2698 H0O8 9.661 15.232 -0.137 hc 191 NIL_191    0.023
2699 H0O9 10.394 15.189 1.486 hc 191 NIL_191    0.023
2700 H0OA 8.640 15.092 1.295 hc 191 NIL_191    0.023
2701 C0IQ 9.444 19.157 -0.186 c3 192 NIL_192   -0.040
2702 C0IR 8.669 18.077 0.593 c3 192 NIL_192    0.015
2703 C0IS 10.588 18.517 -0.995 c3 192 NIL_192   -0.064
2704 H0N7 11.119 19.277 -1.573 hc 192 NIL_192    0.023
2705 H0N8 10.196 17.768 -1.688 hc 192 NIL_192    0.023
2706 H0N9 11.305 18.031 -0.329 hc 192 NIL_192    0.023
2707 H0NA 8.259 17.366 -0.118 h1 192 NIL_192    0.047
2708 H0NB 9.403 17.509 1.171 h1 192 NIL_192    0.047
2709 H0NC 9.857 19.892 0.509 hc 192 NIL_192    0.028
2710 H0ND 8.779 19.680 -0.873 hc 192 NIL_192    0.028
2711 C0EE 6.133 7.653 5.917 c 193 NIL_193    0.510
2712 C0EF 5.435 8.919 5.412 c3 193 NIL_193    0.131
2713 O03A 6.735 6.903 5.172 o 193 NIL_193   -0.547
2714 C0EG 6.499 9.788 4.671 c3 193 NIL_193    0.007
2715 C0EH 4.488 8.441 4.274 c3 193 NIL_193    0.046
2716 N03G 4.719 9.697 6.479 n 193 NIL_193   -0.284
2717 C0EI 5.945 9.987 3.247 c3 193 NIL_193    0.105
2718 N03H 5.099 8.838 3.001 n 193 NIL_193   -0.285
2719 C0EJ 6.989 10.240 2.183 c 193 NIL_193    0.510
2720 O03B 8.006 10.844 2.464 o 193 NIL_193   -0.549
2721 H0I5 5.297 10.865 3.221 h1 193 NIL_193    0.061
2722 H0I6 4.339 7.357 4.299 h1 193 NIL_193    0.050
2723 H0I7 3.511 8.920 4.344 h1 193 NIL_193    0.050
2724 H0I8 7.461 9.272 4.615 hc 193 NIL_193    0.032
2725 H0I9 6.682 10.746 5.163 hc 193 NIL_193    0.032
2726 O03S 13.282 13.252 -17.753 o 194 NIL_194   -0.535
2727 C0G1 13.061 13.866 -16.724 c 194 NIL_194    0.510
2728 C0G2 12.756 15.267 -16.876 c2 194 NIL_194    0.037
2729 C0G3 12.307 15.700 -18.067 c2 194 NIL_194   -0.049
2730 C0G4 12.819 16.177 -15.885 c2 194 NIL_194   -0.049
2731 C0G5 11.907 16.958 -18.249 c2 194 NIL_194   -0.057
2732 C0G6 12.421 17.437 -16.070 c2 194 NIL_194   -0.057
2733 C0G7 11.945 17.839 -17.247 c2 194 NIL_194   -0.031
2734 C0G8 11.408 19.245 -17.442 c3 194 NIL_194    0.036
2735 N03Y 10.319 19.624 -16.531 n 194 NIL_194   -0.310
2736 C0G9 9.230 18.873 -16.244 c 194 NIL_194    0.510
2737 C0GA 8.223 19.563 -15.334 c3 194 NIL_194    0.105
2738 O03T 9.082 17.738 -16.659 o 194 NIL_194   -0.553
2739 N03Z 6.837 19.062 -15.431 n 194 NIL_194   -0.283
2740 C0GB 8.653 19.416 -13.858 c3 194 NIL_194    0.007
2741 C0GC 6.291 18.951 -14.072 c3 194 NIL_194    0.046
2742 C0GD 7.333 19.439 -13.033 c3 194 NIL_194    0.131
2743 N040 6.993 20.814 -12.499 n 194 NIL_194   -0.284
2744 C0GE 7.356 18.333 -11.959 c 194 NIL_194    0.510
2745 C0GF 7.209 21.987 -13.404 c3 194 NIL_194    0.015
2746 O03U 7.838 17.233 -12.167 o 194 NIL_194   -0.544
2747 C0GG 6.050 22.344 -14.364 c3 194 NIL_194   -0.040
2748 C0GH 4.700 22.558 -13.651 c3 194 NIL_194   -0.064
2749 H0JR 3.952 22.905 -14.362 hc 194 NIL_194    0.023
2750 H0JS 4.795 23.308 -12.863 hc 194 NIL_194    0.023
2751 H0JT 4.337 21.628 -13.208 hc 194 NIL_194    0.023
2752 H0JU 5.933 21.580 -15.131 hc 194 NIL_194    0.028
2753 H0JV 6.315 23.266 -14.886 hc 194 NIL_194    0.028
2754 H0JW 8.119 21.874 -13.986 h1 194 NIL_194    0.047
2755 H0JX 7.400 22.871 -12.791 h1 194 NIL_194    0.047
2756 H0JY 6.041 17.901 -13.895 h1 194 NIL_194    0.050
2757 H0JZ 5.377 19.545 -13.989 h1 194 NIL_194    0.050
2758 H0K0 9.172 18.460 -13.751 hc 194 NIL_194    0.032
2759 H0K1 9.367 20.184 -13.551 hc 194 NIL_194    0.032
2760 H0K2 8.209 20.617 -15.619 h1 194 NIL_194    0.061
2761 H0K3 12.220 19.965 -17.316 h1 194 NIL_194    0.052
2762 H0K4 11.026 19.353 -18.461 h1 194 NIL_194    0.052
2763 H0K5 12.463 18.132 -15.234 ha 194 NIL_194    0.063
2764 H0K6 11.520 17.254 -19.219 ha 194 NIL_194    0.063
2765 H0K7 13.192 15.945 -14.901 ha 194 NIL_194    0.063
2766 H0K8 12.215 15.024 -18.914 ha 194 NIL_194    0.063
2767 H0K9 10.365 20.552 -16.138 hn 194 NIL_194    0.150
2768 C0I4 2.549 10.981 6.077 c3 195 NIL_195   -0.040
2769 C0I5 4.093 10.973 6.032 c3 195 NIL_195    0.015
2770 C0I6 2.010 12.384 5.742 c3 195 NIL_195   -0.064
2771 H0M3 2.334 12.696 4.746 hc 195 NIL_195    0.023
2772 H0M4 2.371 13.117 6.468 hc 195 NIL_195    0.023
2773 H0M5 0.918 12.389 5.767 hc 195 NIL_195    0.023
2774 H0M6 4.385 11.221 5.014 h1 195 NIL_195    0.047
2775 H0M7 4.471 11.778 6.670 h1 195 NIL_195    0.047
2776 H0M8 2.198 10.694 7.071 hc 195 NIL_195    0.028
2777 H0M9 2.141 10.262 5.364 hc 195 NIL_195    0.028
2778 C0E8 7.029 19.329 -3.604 c3 196 NIL_196    0.131
2779 C0E9 8.415 19.044 -4.268 c3 196 NIL_196    0.007
2780 C0EA 6.044 18.982 -4.758 c3 196 NIL_196    0.046
2781 N03E 6.858 20.766 -3.152 n 196 NIL_196   -0.284
2782 C0EB 6.741 18.293 -2.500 c 196 NIL_196    0.510
2783 C0EC 8.180 19.271 -5.775 c3 196 NIL_196    0.105
2784 N03F 6.800 18.891 -6.015 n 196 NIL_196   -0.285
2785 O038 7.059 17.122 -2.606 o 196 NIL_196   -0.544
2786 C0ED 9.169 18.631 -6.721 c 196 NIL_196    0.510
2787 O039 10.306 18.382 -6.362 o 196 NIL_196   -0.549
2788 H0I0 8.253 20.332 -6.013 h1 196 NIL_196    0.061
2789 H0I1 5.566 18.012 -4.591 h1 196 NIL_196    0.050
2790 H0I2 5.259 19.738 -4.843 h1 196 NIL_196    0.050
2791 H0I3 8.718 18.003 -4.136 hc 196 NIL_196    0.032
2792 H0I4 9.220 19.664 -3.869 hc 196 NIL_196    0.032
2793 C0DK 5.255 17.672 -16.756 c2 197 NIL_197    0.037
2794 C0DL 6.248 18.693 -16.607 c 197 NIL_197    0.510
2795 C0DM 4.290 17.419 -15.857 c2 197 NIL_197   -0.049
2796 C0DN 5.331 16.878 -17.834 c2 197 NIL_197   -0.049
2797 O033 6.661 19.195 -17.639 o 197 NIL_197   -0.535
2798 C0DO 3.449 16.395 -16.026 c2 197 NIL_197   -0.057
2799 C0DP 4.495 15.855 -17.995 c2 197 NIL_197   -0.057
2800 C0DQ 3.551 15.594 -17.088 c2 197 NIL_197   -0.031
2801 C0DR 2.629 14.405 -17.271 c3 197 NIL_197    0.036
2802 N039 2.831 13.274 -16.356 n 197 NIL_197   -0.310
2803 C0DS 4.009 12.651 -16.113 c 197 NIL_197    0.510
2804 C0DT 3.867 11.341 -15.348 c3 197 NIL_197    0.105
2805 O034 5.083 13.097 -16.472 o 197 NIL_197   -0.553
2806 N03A 4.840 10.277 -15.678 n 197 NIL_197   -0.283
2807 C0DU 4.008 11.574 -13.832 c3 197 NIL_197    0.007
2808 C0DV 5.129 9.542 -14.436 c3 197 NIL_197    0.046
2809 C0DW 4.373 10.191 -13.243 c3 197 NIL_197    0.131
2810 N03B 3.101 9.526 -12.813 n 197 NIL_197   -0.284
2811 C0DX 5.389 10.324 -12.094 c 197 NIL_197    0.510
2812 C0DY 2.208 8.976 -13.863 c3 197 NIL_197    0.015
2813 O035 6.461 10.880 -12.238 o 197 NIL_197   -0.544
2814 C0DZ 1.795 7.509 -13.605 c3 197 NIL_197   -0.040
2815 C0E0 2.988 6.535 -13.611 c3 197 NIL_197   -0.064
2816 H0H8 3.747 6.833 -12.885 hc 197 NIL_197    0.023
2817 H0H9 3.447 6.495 -14.600 hc 197 NIL_197    0.023
2818 H0HA 2.648 5.531 -13.348 hc 197 NIL_197    0.023
2819 H0HB 1.084 7.205 -14.375 hc 197 NIL_197    0.028
2820 H0HC 1.275 7.434 -12.648 hc 197 NIL_197    0.028
2821 H0HD 2.682 9.004 -14.842 h1 197 NIL_197    0.047
2822 H0HE 1.312 9.602 -13.912 h1 197 NIL_197    0.047
2823 H0HF 6.200 9.617 -14.251 h1 197 NIL_197    0.050
2824 H0HG 4.859 8.488 -14.555 h1 197 NIL_197    0.050
2825 H0HH 4.811 12.294 -13.649 hc 197 NIL_197    0.032
2826 H0HI 3.089 11.980 -13.403 hc 197 NIL_197    0.032
2827 H0HJ 2.869 10.955 -15.568 h1 197 NIL_197    0.061
2828 H0HK 1.595 14.739 -17.161 h1 197 NIL_197    0.052
2829 H0HL 2.731 14.018 -18.289 h1 197 NIL_197    0.052
2830 H0HM 4.603 15.218 -18.869 ha 197 NIL_197    0.063
2831 H0HN 2.681 16.206 -15.279 ha 197 NIL_197    0.063
2832 H0HO 6.107 17.025 -18.582 ha 197 NIL_197    0.063
2833 H0HP 4.150 18.039 -14.982 ha 197 NIL_197    0.063
2834 H0HQ 1.991 12.852 -15.988 hn 197 NIL_197    0.150
2835 C0F2 3.845 22.510 6.444 c3 198 NIL_198   -0.064
2836 C0F3 5.107 22.146 5.641 c3 198 NIL_198   -0.040
2837 C0F4 6.049 21.176 6.393 c3 198 NIL_198    0.015
2838 H0IQ 6.946 21.047 5.793 h1 198 NIL_198    0.047
2839 H0IR 6.400 21.695 7.289 h1 198 NIL_198    0.047
2840 H0IS 4.830 21.741 4.668 hc 198 NIL_198    0.028
2841 H0IT 5.661 23.065 5.438 hc 198 NIL_198    0.028
2842 H0IU 3.232 21.626 6.629 hc 198 NIL_198    0.023
2843 H0IV 3.246 23.235 5.890 hc 198 NIL_198    0.023
2844 H0IW 4.114 22.959 7.404 hc 198 NIL_198    0.023
2845 O03K 14.830 18.310 17.808 o 199 NIL_199   -0.545
2846 C0FB 13.913 17.740 17.246 c 199 NIL_199    0.510
2847 C0FC 14.099 16.415 16.485 c3 199 NIL_199    0.128
2848 C0FD 14.223 15.273 17.516 c3 199 NIL_199    0.003
2849 C0FE 15.524 16.416 15.857 c3 199 NIL_199    0.029
2850 N03Q 12.983 16.124 15.517 n 199 NIL_199   -0.275
2851 C0FF 15.686 15.284 18.023 c3 199 NIL_199    0.090
2852 N03R 16.448 15.909 16.899 n3 199 NIL_199   -0.290
2853 C0FG 16.146 13.957 18.640 c 199 NIL_199    0.510
2854 O03L 17.315 13.670 18.816 o 199 NIL_199   -0.557
2855 H0J2 15.719 15.992 18.857 h1 199 NIL_199    0.057
2856 H0J3 15.588 15.756 14.998 h1 199 NIL_199    0.046
2857 H0J4 15.819 17.417 15.528 h1 199 NIL_199    0.046
2858 H0J5 14.026 14.321 17.020 hc 199 NIL_199    0.032
2859 H0J6 13.503 15.378 18.332 hc 199 NIL_199    0.032
2860 C0J3 5.402 4.798 17.373 c3 200 NIL_200   -0.004
2861 C0J4 5.312 3.681 16.315 c3 200 NIL_200   -0.052
2862 H0NU 5.250 2.707 16.805 hc 200 NIL_200    0.024
2863 H0NV 6.189 3.677 15.664 hc 200 NIL_200    0.024
2864 H0NW 4.420 3.811 15.699 hc 200 NIL_200    0.024
2865 H0NX 4.521 4.729 18.016 h1 200 NIL_200    0.043
2866 H0NY 6.290 4.642 17.993 h1 200 NIL_200    0.043
2867 C0FT 17.749 15.371 16.418 c3 201 NIL_201   -0.004
2868 C0FU 17.624 14.054 15.619 c3 201 NIL_201   -0.052
2869 H0JH 18.618 13.690 15.355 hc 201 NIL_201    0.024
2870 H0JI 17.068 14.201 14.691 hc 201 NIL_201    0.024
2871 H0JJ 17.127 13.275 16.197 hc 201 NIL_201    0.024
2872 H0JK 18.422 15.226 17.264 h1 201 NIL_201    0.043
2873 H0JL 18.211 16.120 15.770 h1 201 NIL_201    0.043
2874 H0LQ 11.788 8.184 16.851 hn 202 NIL_202    0.151
2875 N04J 12.117 8.985 17.369 n 202 NIL_202   -0.298
2876 C0HV 11.188 9.569 18.361 c3 202 NIL_202    0.129
2877 C0HW 10.274 10.604 17.666 c3 202 NIL_202    0.006
2878 C0HX 10.196 8.480 18.827 c3 202 NIL_202    0.045
2879 C0HY 11.923 10.242 19.524 c 202 NIL_202    0.510
2880 C0HZ 8.986 9.847 17.283 c3 202 NIL_202    0.105
2881 N04K 9.069 8.522 17.894 n 202 NIL_202   -0.285
2882 O04A 11.443 10.355 20.636 o 202 NIL_202   -0.545
2883 C0I0 8.668 9.749 15.797 c 202 NIL_202    0.510
2884 O04B 9.103 10.554 14.995 o 202 NIL_202   -0.549
2885 H0LR 8.139 10.372 17.732 h1 202 NIL_202    0.061
2886 H0LS 10.667 7.492 18.827 h1 202 NIL_202    0.050
2887 H0LT 9.808 8.696 19.825 h1 202 NIL_202    0.050
2888 H0LU 10.769 11.076 16.815 hc 202 NIL_202    0.032
2889 H0LV 10.006 11.400 18.366 hc 202 NIL_202    0.032
2890 C0J1 4.651 18.460 13.117 c 203 NIL_203    0.510
2891 C0J2 3.345 17.913 13.661 c3 203 NIL_203    0.092
2892 O04G 5.552 18.866 13.826 o 203 NIL_203   -0.557
2893 H0NS 2.553 18.633 13.459 h1 203 NIL_203    0.057
2894 H0NT 3.104 17.030 13.062 h1 203 NIL_203    0.057
2895 C0EQ 10.879 19.942 17.276 c3 204 NIL_204    0.129
2896 C0ER 10.591 18.834 16.246 c3 204 NIL_204    0.006
2897 C0ES 12.358 19.669 17.652 c3 204 NIL_204    0.045
2898 N03K 10.731 21.272 16.653 n 204 NIL_204   -0.298
2899 C0ET 9.938 19.739 18.468 c 204 NIL_204    0.510
2900 C0EU 11.482 17.671 16.696 c3 204 NIL_204    0.105
2901 N03L 12.682 18.296 17.234 n 204 NIL_204   -0.285
2902 H0IF 11.542 21.652 16.188 hn 204 NIL_204    0.151
2903 O03E 10.183 18.978 19.386 o 204 NIL_204   -0.545
2904 C0EV 11.730 16.648 15.613 c 204 NIL_204    0.510
2905 O03F 10.836 16.329 14.852 o 204 NIL_204   -0.549
2906 H0IG 10.997 17.137 17.518 h1 204 NIL_204    0.061
2907 H0IH 13.016 20.354 17.109 h1 204 NIL_204    0.050
2908 H0II 12.529 19.788 18.725 h1 204 NIL_204    0.050
2909 H0IJ 10.898 19.161 15.248 hc 204 NIL_204    0.032
2910 H0IK 9.535 18.555 16.207 hc 204 NIL_204    0.032
2911 C0JG 13.260 15.112 14.469 c3 205 NIL_205    0.092
2912 C0JH 13.669 15.729 13.147 c 205 NIL_205    0.510
2913 O04H 13.630 16.925 12.923 o 205 NIL_205   -0.557
2914 H0OP 12.364 14.516 14.274 h1 205 NIL_205    0.057
2915 H0OQ 14.041 14.415 14.781 h1 205 NIL_205    0.057
2916 O03Q 3.988 22.257 18.870 o 206 NIL_206   -0.557
2917 C0FV 4.338 21.196 18.391 c 206 NIL_206    0.510
2918 C0FW 3.364 20.238 17.699 c3 206 NIL_206    0.090
2919 N03W 2.325 20.748 16.754 n3 206 NIL_206   -0.290
2920 C0FX 4.027 19.077 16.931 c3 206 NIL_206    0.003
2921 C0FY 2.150 19.720 15.686 c3 206 NIL_206    0.029
2922 C0FZ 2.871 18.422 16.148 c3 206 NIL_206    0.128
2923 N03X 3.414 17.503 15.088 n 206 NIL_206   -0.275
2924 C0G0 2.017 17.631 17.153 c 206 NIL_206    0.510
2925 O03R 1.024 18.082 17.692 o 206 NIL_206   -0.545
2926 H0JM 2.641 20.110 14.792 h1 206 NIL_206    0.046
2927 H0JN 1.094 19.546 15.465 h1 206 NIL_206    0.046
2928 H0JO 4.772 19.474 16.237 hc 206 NIL_206    0.032
2929 H0JP 4.524 18.377 17.607 hc 206 NIL_206    0.032
2930 H0JQ 2.824 19.784 18.534 h1 206 NIL_206    0.057
2931 C0EW 13.356 13.970 -7.434 c 207 NIL_207    0.510
2932 C0EX 12.972 12.976 -8.542 c3 207 NIL_207    0.131
2933 O03G 13.556 15.154 -7.635 o 207 NIL_207   -0.544
2934 C0EY 14.327 12.592 -9.206 c3 207 NIL_207    0.007
2935 C0EZ 12.217 13.719 -9.689 c3 207 NIL_207    0.046
2936 N03M 12.247 11.751 -8.027 n 207 NIL_207   -0.284
2937 C0F0 14.308 13.260 -10.589 c3 207 NIL_207    0.105
2938 N03N 12.901 13.335 -10.925 n 207 NIL_207   -0.285
2939 C0F1 15.206 12.565 -11.585 c 207 NIL_207    0.510
2940 O03H 16.373 12.374 -11.299 o 207 NIL_207   -0.549
2941 H0IL 14.676 14.287 -10.501 h1 207 NIL_207    0.061
2942 H0IM 11.147 13.513 -9.711 h1 207 NIL_207    0.050
2943 H0IN 12.317 14.804 -9.605 h1 207 NIL_207    0.050
2944 H0IO 14.426 11.512 -9.303 hc 207 NIL_207    0.032
2945 H0IP 15.194 12.932 -8.634 hc 207 NIL_207    0.032
2946 C0I7 17.017 12.662 -5.079 c3 208 NIL_208   -0.040
2947 C0I8 16.093 11.949 -4.066 c3 208 NIL_208    0.015
2948 C0I9 17.949 11.652 -5.774 c3 208 NIL_208   -0.064
2949 H0MA 18.552 11.109 -5.041 hc 208 NIL_208    0.023
2950 H0MB 18.627 12.169 -6.456 hc 208 NIL_208    0.023
2951 H0MC 17.369 10.928 -6.350 hc 208 NIL_208    0.023
2952 H0MD 15.505 11.191 -4.577 h1 208 NIL_208    0.047
2953 H0ME 16.737 11.372 -3.395 h1 208 NIL_208    0.047
2954 H0MF 17.619 13.412 -4.561 hc 208 NIL_208    0.028
2955 H0MG 16.435 13.171 -5.847 hc 208 NIL_208    0.028
2956 C0E1 6.717 8.597 13.161 c 209 NIL_209    0.510
2957 C0E2 7.933 8.236 13.995 c3 209 NIL_209    0.092
2958 O036 5.664 8.993 13.623 o 209 NIL_209   -0.557
2959 H0HR 8.071 7.154 13.933 h1 209 NIL_209    0.057
2960 H0HS 8.796 8.680 13.492 h1 209 NIL_209    0.057
2961 N04D 1.135 13.378 17.143 n 210 NIL_210   -0.298
2962 C0HF 2.258 13.991 17.883 c3 210 NIL_210    0.129
2963 H0L8 0.474 14.007 16.712 hn 210 NIL_210    0.151
2964 C0HG 3.434 14.236 16.903 c3 210 NIL_210    0.006
2965 C0HH 1.837 15.412 18.340 c3 210 NIL_210    0.045
2966 C0HI 2.742 13.102 19.037 c 210 NIL_210    0.510
2967 C0HJ 3.616 15.760 16.804 c3 210 NIL_210    0.105
2968 N04E 2.426 16.363 17.394 n 210 NIL_210   -0.285
2969 O045 3.271 13.542 20.040 o 210 NIL_210   -0.545
2970 C0HK 3.904 16.270 15.402 c 210 NIL_210    0.510
2971 O046 4.512 15.592 14.594 o 210 NIL_210   -0.549
2972 H0L9 4.470 16.052 17.422 h1 210 NIL_210    0.061
2973 H0LA 0.748 15.515 18.363 h1 210 NIL_210    0.050
2974 H0LB 2.235 15.644 19.331 h1 210 NIL_210    0.050
2975 H0LC 3.203 13.810 15.922 hc 210 NIL_210    0.032
2976 H0LD 4.362 13.772 17.248 hc 210 NIL_210    0.032
2977 C0IT 1.988 11.164 17.666 c3 211 NIL_211    0.104
2978 N04P 2.532 11.773 18.881 n 211 NIL_211   -0.286
2979 C0IU 1.471 9.782 18.088 c3 211 NIL_211   -0.005
2980 C0IV 0.982 12.049 16.956 c 211 NIL_211    0.510
2981 C0IW 2.727 10.729 19.898 c3 211 NIL_211    0.034
2982 C0IX 2.445 9.378 19.208 c3 211 NIL_211    0.040
2983 O04F 0.077 11.611 16.275 o 211 NIL_211   -0.552
2984 N04Q 3.698 8.820 18.681 n 211 NIL_211   -0.310
2985 H0NE 1.993 8.663 19.900 h1 211 NIL_211    0.052
2986 H0NF 2.005 10.889 20.704 h1 211 NIL_211    0.049
2987 H0NG 3.743 10.768 20.304 h1 211 NIL_211    0.049
2988 H0NH 1.454 9.076 17.255 hc 211 NIL_211    0.031
2989 H0NI 0.461 9.867 18.500 hc 211 NIL_211    0.031
2990 H0NJ 2.823 11.034 16.971 h1 211 NIL_211    0.061
2991 H0NK 4.522 9.391 18.794 hn 211 NIL_211    0.150
2992 C0GO 7.135 20.074 -8.981 c3 212 NIL_212    0.007
2993 C0GP 6.357 19.893 -10.293 c3 212 NIL_212    0.105
2994 C0GQ 7.292 18.636 -8.404 c3 212 NIL_212    0.131
2995 N043 6.774 18.593 -10.770 n 212 NIL_212   -0.285
2996 C0GR 6.538 21.052 -11.235 c 212 NIL_212    0.510
2997 C0GS 6.787 17.735 -9.580 c3 212 NIL_212    0.046
2998 N044 8.724 18.376 -7.988 n 212 NIL_212   -0.284
2999 C0GT 6.300 18.586 -7.231 c 212 NIL_212    0.510
3000 O03X 6.272 22.172 -10.839 o 212 NIL_212   -0.549
3001 O03Y 5.115 18.340 -7.361 o 212 NIL_212   -0.544
3002 H0KF 7.368 16.826 -9.721 h1 212 NIL_212    0.050
3003 H0KG 5.755 17.413 -9.426 h1 212 NIL_212    0.050
3004 H0KH 5.286 19.836 -10.077 h1 212 NIL_212    0.061
3005 H0KI 8.107 20.527 -9.182 hc 212 NIL_212    0.032
3006 H0KJ 6.603 20.752 -8.308 hc 212 NIL_212    0.032
3007 C0D3 11.696 11.153 -16.369 c 213 NIL_213    0.510
3008 C0D4 12.844 11.670 -15.513 c3 213 NIL_213    0.105
3009 O030 10.771 11.857 -16.727 o 213 NIL_213   -0.553
3010 N036 11.788 9.838 -16.683 n 213 NIL_213   -0.310
3011 N037 13.056 13.134 -15.566 n 213 NIL_213   -0.283
3012 C0D5 12.622 11.287 -14.032 c3 213 NIL_213    0.007
3013 C0D6 10.934 9.115 -17.637 c3 213 NIL_213    0.036
3014 C0D7 13.193 13.623 -14.191 c3 213 NIL_213    0.046
3015 C0D8 13.255 12.438 -13.202 c3 213 NIL_213    0.131
3016 C0D9 9.437 9.299 -17.471 c2 213 NIL_213   -0.031
3017 N038 14.684 12.173 -12.782 n 213 NIL_213   -0.284
3018 C0DA 12.325 12.857 -12.049 c 213 NIL_213    0.510
3019 C0DB 8.752 8.633 -16.538 c2 213 NIL_213   -0.057
3020 C0DC 8.777 10.153 -18.254 c2 213 NIL_213   -0.057
3021 C0DD 15.578 11.457 -13.742 c3 213 NIL_213    0.015
3022 O031 11.111 12.821 -12.136 o 213 NIL_213   -0.544
3023 C0DE 7.445 8.846 -16.366 c2 213 NIL_213   -0.049
3024 C0DF 7.474 10.370 -18.082 c2 213 NIL_213   -0.049
3025 C0DG 16.427 12.385 -14.642 c3 213 NIL_213   -0.040
3026 C0DH 6.785 9.740 -17.120 c2 213 NIL_213    0.037
3027 C0DI 17.218 11.567 -15.683 c3 213 NIL_213   -0.064
3028 C0DJ 5.421 10.125 -16.906 c 213 NIL_213    0.510
3029 O032 4.789 10.460 -17.892 o 213 NIL_213   -0.535
3030 H0GP 17.874 10.844 -15.192 hc 213 NIL_213    0.023
3031 H0GQ 17.835 12.226 -16.298 hc 213 NIL_213    0.023
3032 H0GR 16.539 11.023 -16.344 hc 213 NIL_213    0.023
3033 H0GS 17.127 12.957 -14.028 hc 213 NIL_213    0.028
3034 H0GT 15.797 13.101 -15.171 hc 213 NIL_213    0.028
3035 H0GU 6.997 11.115 -18.715 ha 213 NIL_213    0.063
3036 H0GV 6.940 8.266 -15.605 ha 213 NIL_213    0.063
3037 H0GW 15.028 10.766 -14.372 h1 213 NIL_213    0.047
3038 H0GX 16.265 10.827 -13.167 h1 213 NIL_213    0.047
3039 H0GY 9.308 10.712 -19.020 ha 213 NIL_213    0.063
3040 H0GZ 9.265 7.924 -15.890 ha 213 NIL_213    0.063
3041 H0H0 12.318 14.243 -13.976 h1 213 NIL_213    0.050
3042 H0H1 14.099 14.228 -14.096 h1 213 NIL_213    0.050
3043 H0H2 11.176 8.053 -17.554 h1 213 NIL_213    0.052
3044 H0H3 11.228 9.433 -18.639 h1 213 NIL_213    0.052
3045 H0H4 11.547 11.211 -13.856 hc 213 NIL_213    0.032
3046 H0H5 13.034 10.306 -13.783 hc 213 NIL_213    0.032
3047 H0H6 13.753 11.195 -15.887 h1 213 NIL_213    0.061
3048 H0H7 12.576 9.325 -16.317 hn 213 NIL_213    0.150
3049 O03M 8.329 6.429 18.159 o 214 NIL_214   -0.545
3050 C0FH 8.247 7.496 17.579 c 214 NIL_214    0.510
3051 C0FI 7.267 7.770 16.425 c3 214 NIL_214    0.128
3052 C0FJ 6.010 8.428 17.032 c3 214 NIL_214    0.003
3053 C0FK 6.643 6.435 15.913 c3 214 NIL_214    0.029
3054 N03S 7.908 8.680 15.412 n 214 NIL_214   -0.275
3055 C0FL 5.269 7.263 17.709 c3 214 NIL_214    0.090
3056 N03T 5.452 6.147 16.757 n3 214 NIL_214   -0.290
3057 C0FM 3.840 7.610 18.096 c 214 NIL_214    0.510
3058 O03N 2.900 6.863 17.902 o 214 NIL_214   -0.557
3059 H0J7 5.789 7.029 18.643 h1 214 NIL_214    0.057
3060 H0J8 6.270 6.536 14.893 h1 214 NIL_214    0.046
3061 H0J9 7.376 5.624 15.937 h1 214 NIL_214    0.046
3062 H0JA 5.384 8.857 16.246 hc 214 NIL_214    0.032
3063 H0JB 6.251 9.217 17.747 hc 214 NIL_214    0.032
3064 C0H9 4.950 10.478 -8.570 c3 215 NIL_215    0.131
3065 C0HA 3.608 10.707 -9.336 c3 215 NIL_215    0.007
3066 C0HB 5.865 9.867 -9.677 c3 215 NIL_215    0.046
3067 N04B 5.513 11.736 -7.955 n 215 NIL_215   -0.284
3068 C0HC 4.610 9.386 -7.543 c 215 NIL_215    0.510
3069 C0HD 3.684 9.653 -10.452 c3 215 NIL_215    0.105
3070 N04C 5.058 9.771 -10.902 n 215 NIL_215   -0.285
3071 O043 4.530 8.205 -7.830 o 215 NIL_215   -0.544
3072 C0HE 2.638 9.690 -11.544 c 215 NIL_215    0.510
3073 O044 1.454 9.758 -11.281 o 215 NIL_215   -0.549
3074 H0L3 3.564 8.656 -10.019 h1 215 NIL_215    0.061
3075 H0L4 6.751 10.462 -9.855 h1 215 NIL_215    0.050
3076 H0L5 6.213 8.867 -9.408 h1 215 NIL_215    0.050
3077 H0L6 3.551 11.706 -9.774 hc 215 NIL_215    0.032
3078 H0L7 2.735 10.562 -8.694 hc 215 NIL_215    0.032
3079 C0JD 8.339 13.092 -7.753 c3 216 NIL_216   -0.064
3080 C0JE 7.565 12.898 -9.072 c3 216 NIL_216   -0.040
3081 C0JF 6.023 12.760 -8.917 c3 216 NIL_216    0.015
3082 H0OI 5.623 13.734 -8.622 h1 216 NIL_216    0.047
3083 H0OJ 5.614 12.559 -9.909 h1 216 NIL_216    0.047
3084 H0OK 7.760 13.762 -9.711 hc 216 NIL_216    0.028
3085 H0OL 7.981 12.043 -9.602 hc 216 NIL_216    0.028
3086 H0OM 9.408 13.170 -7.965 hc 216 NIL_216    0.023
3087 H0ON 8.193 12.243 -7.081 hc 216 NIL_216    0.023
3088 H0OO 8.023 14.005 -7.245 hc 216 NIL_216    0.023
3089 C0IY 0.735 12.871 -4.974 c3 217 NIL_217   -0.064
3090 C0IZ 1.717 12.305 -3.931 c3 217 NIL_217   -0.040
3091 C0J0 1.810 10.762 -4.024 c3 217 NIL_217    0.015
3092 H0NL 0.848 10.338 -3.720 h1 217 NIL_217    0.047
3093 H0NM 1.938 10.490 -5.071 h1 217 NIL_217    0.047
3094 H0NN 2.695 12.760 -4.089 hc 217 NIL_217    0.028
3095 H0NO 1.388 12.600 -2.932 hc 217 NIL_217    0.028
3096 H0NP -0.265 12.452 -4.840 hc 217 NIL_217    0.023
3097 H0NQ 1.072 12.644 -5.989 hc 217 NIL_217    0.023
3098 H0NR 0.666 13.955 -4.872 hc 217 NIL_217    0.023
3099 C0J5 1.326 22.599 15.353 c3 218 NIL_218   -0.052
3100 C0J6 2.520 22.120 16.205 c3 218 NIL_218   -0.004
3101 H0NZ 3.429 22.143 15.597 h1 218 NIL_218    0.043
3102 H0O0 2.632 22.839 17.017 h1 218 NIL_218    0.043
3103 H0O1 0.420 22.652 15.961 hc 218 NIL_218    0.024
3104 H0O2 1.140 21.935 14.506 hc 218 NIL_218    0.024
3105 H0O3 1.530 23.597 14.959 hc 218 NIL_218    0.024
3106 C0GY 7.851 20.621 19.561 c3 219 NIL_219    0.034
3107 C0GZ 6.723 21.548 19.068 c3 219 NIL_219    0.040
3108 N047 8.808 20.484 18.457 n 219 NIL_219   -0.286
3109 C0H0 7.423 22.372 17.976 c3 219 NIL_219   -0.005
3110 N048 5.616 20.765 18.504 n 219 NIL_219   -0.310
3111 C0H1 8.402 21.362 17.358 c3 219 NIL_219    0.104
3112 C0H2 9.573 21.966 16.606 c 219 NIL_219    0.510
3113 O040 9.500 23.019 16.005 o 219 NIL_219   -0.552
3114 H0KR 7.864 20.743 16.634 h1 219 NIL_219    0.061
3115 H0KS 6.726 22.778 17.238 hc 219 NIL_219    0.031
3116 H0KT 7.974 23.197 18.436 hc 219 NIL_219    0.031
3117 H0KU 6.357 22.185 19.879 h1 219 NIL_219    0.052
3118 H0KV 8.365 21.086 20.407 h1 219 NIL_219    0.049
3119 H0KW 7.464 19.643 19.861 h1 219 NIL_219    0.049
3120 H0KX 5.851 19.859 18.127 hn 219 NIL_219    0.150
3121 C0IA 5.829 17.941 -0.170 c3 220 NIL_220    0.046
3122 C0IB 6.248 18.873 1.013 c3 220 NIL_220    0.131
3123 N04L 6.077 18.706 -1.396 n 220 NIL_220   -0.285
3124 C0IC 6.189 20.285 0.361 c3 220 NIL_220    0.007
3125 C0ID 5.159 18.857 2.102 c 220 NIL_220    0.510
3126 N04M 7.636 18.590 1.543 n 220 NIL_220   -0.284
3127 C0IE 5.697 20.067 -1.082 c3 220 NIL_220    0.105
3128 O04C 3.975 18.751 1.844 o 220 NIL_220   -0.544
3129 C0IF 6.185 21.137 -2.026 c 220 NIL_220    0.510
3130 O04D 5.969 22.304 -1.754 o 220 NIL_220   -0.549
3131 H0MH 4.604 20.113 -1.105 h1 220 NIL_220    0.061
3132 H0MI 7.175 20.754 0.359 hc 220 NIL_220    0.032
3133 H0MJ 5.515 20.966 0.887 hc 220 NIL_220    0.032
3134 H0MK 6.338 16.977 -0.158 h1 220 NIL_220    0.050
3135 H0ML 4.758 17.730 -0.149 h1 220 NIL_220    0.050
3136 C0H3 14.085 15.076 4.354 c3 221 NIL_221    0.046
3137 C0H4 13.584 14.241 5.565 c3 221 NIL_221    0.131
3138 N049 13.647 14.413 3.124 n 221 NIL_221   -0.285
3139 C0H5 12.851 13.026 4.917 c3 221 NIL_221    0.007
3140 N04A 14.708 13.794 6.458 n 221 NIL_221   -0.284
3141 C0H6 12.520 15.099 6.261 c 221 NIL_221    0.510
3142 C0H7 13.247 13.047 3.429 c3 221 NIL_221    0.105
3143 O041 11.537 15.516 5.677 o 221 NIL_221   -0.547
3144 C0H8 12.203 12.496 2.484 c 221 NIL_221    0.510
3145 O042 11.458 11.598 2.831 o 221 NIL_221   -0.549
3146 H0KY 14.124 12.414 3.276 h1 221 NIL_221    0.061
3147 H0KZ 11.766 13.125 5.002 hc 221 NIL_221    0.032
3148 H0L0 13.119 12.073 5.380 hc 221 NIL_221    0.032
3149 H0L1 13.687 16.094 4.377 h1 221 NIL_221    0.050
3150 H0L2 15.170 15.142 4.344 h1 221 NIL_221    0.050
3151 N041 2.876 10.162 -3.167 n 222 NIL_222   -0.284
3152 C0GI 4.149 9.710 -3.844 c3 222 NIL_222    0.131
3153 C0GJ 4.961 10.949 -4.329 c3 222 NIL_222    0.007
3154 C0GK 3.926 8.923 -5.173 c3 222 NIL_222    0.046
3155 C0GL 5.055 8.828 -2.964 c 222 NIL_222    0.510
3156 C0GM 4.509 11.134 -5.787 c3 222 NIL_222    0.105
3157 N042 4.370 9.782 -6.280 n 222 NIL_222   -0.285
3158 O03V 6.108 8.384 -3.385 o 222 NIL_222   -0.544
3159 C0GN 5.315 12.078 -6.648 c 222 NIL_222    0.510
3160 O03W 5.712 13.128 -6.179 o 222 NIL_222   -0.549
3161 H0KA 3.518 11.574 -5.803 h1 222 NIL_222    0.061
3162 H0KB 4.504 7.994 -5.196 h1 222 NIL_222    0.050
3163 H0KC 2.877 8.656 -5.310 h1 222 NIL_222    0.050
3164 H0KD 6.036 10.750 -4.320 hc 222 NIL_222    0.032
3165 H0KE 4.788 11.834 -3.716 hc 222 NIL_222    0.032
3166 C0HL 14.384 13.254 0.176 c3 223 NIL_223    0.007
3167 C0HM 14.783 14.013 -1.098 c3 223 NIL_223    0.105
3168 C0HN 13.170 14.043 0.747 c3 223 NIL_223    0.131
3169 N04F 13.505 14.416 -1.637 n 223 NIL_223   -0.285
3170 C0HO 15.682 13.206 -2.002 c 223 NIL_223    0.510
3171 C0HP 12.754 14.923 -0.484 c3 223 NIL_223    0.046
3172 C0HQ 13.718 14.929 1.876 c 223 NIL_223    0.510
3173 N04G 12.129 13.076 1.253 n 223 NIL_223   -0.284
3174 O047 16.788 12.897 -1.599 o 223 NIL_223   -0.549
3175 O048 14.198 16.031 1.690 o 223 NIL_223   -0.544
3176 H0LE 11.690 14.910 -0.686 h1 223 NIL_223    0.050
3177 H0LF 13.030 15.971 -0.349 h1 223 NIL_223    0.050
3178 H0LG 15.339 14.916 -0.830 h1 223 NIL_223    0.061
3179 H0LH 14.086 12.236 -0.091 hc 223 NIL_223    0.032
3180 H0LI 15.219 13.191 0.880 hc 223 NIL_223    0.032
3181 C0EK 4.365 10.042 0.086 c3 224 NIL_224    0.007
3182 C0EL 3.610 9.249 -0.989 c3 224 NIL_224    0.105
3183 C0EM 5.456 9.041 0.574 c3 224 NIL_224    0.131
3184 N03I 4.668 8.557 -1.694 n 224 NIL_224   -0.285
3185 C0EN 2.655 10.065 -1.826 c 224 NIL_224    0.510
3186 C0EO 5.543 8.034 -0.632 c3 224 NIL_224    0.046
3187 C0EP 4.799 8.346 1.781 c 224 NIL_224    0.510
3188 N03J 6.743 9.757 0.929 n 224 NIL_224   -0.284
3189 O03C 1.681 10.565 -1.295 o 224 NIL_224   -0.549
3190 O03D 4.011 7.424 1.676 o 224 NIL_224   -0.544
3191 H0IA 6.550 7.871 -1.002 h1 224 NIL_224    0.050
3192 H0IB 5.171 7.046 -0.352 h1 224 NIL_224    0.050
3193 H0IC 2.989 8.493 -0.502 h1 224 NIL_224    0.061
3194 H0ID 4.803 10.941 -0.352 hc 224 NIL_224    0.032
3195 H0IE 3.697 10.364 0.889 hc 224 NIL_224    0.032
3196 C0FN 13.962 14.183 -5.009 c3 225 NIL_225    0.046
3197 C0FO 13.872 13.226 -3.786 c3 225 NIL_225    0.131
3198 N03U 13.523 13.451 -6.201 n 225 NIL_225   -0.285
3199 C0FP 13.109 11.991 -4.358 c3 225 NIL_225    0.007
3200 N03V 15.234 12.853 -3.240 n 225 NIL_225   -0.284
3201 C0FQ 12.964 13.973 -2.793 c 225 NIL_225    0.510
3202 C0FR 13.371 12.046 -5.873 c3 225 NIL_225    0.105
3203 O03O 11.795 14.207 -3.044 o 225 NIL_225   -0.544
3204 C0FS 12.384 11.305 -6.745 c 225 NIL_225    0.510
3205 O03P 11.769 10.348 -6.312 o 225 NIL_225   -0.549
3206 H0JC 14.326 11.575 -6.107 h1 225 NIL_225    0.061
3207 H0JD 12.033 12.066 -4.188 hc 225 NIL_225    0.032
3208 H0JE 13.436 11.046 -3.916 hc 225 NIL_225    0.032
3209 H0JF 13.301 15.047 -4.891 h1 225 NIL_225    0.050
3210 H0JG 14.977 14.561 -5.143 h1 225 NIL_225    0.050
3211 C1QR 4.950 39.057 -8.570 c3 226 NIL_226    0.131
3212 C1QS 3.608 39.286 -9.336 c3 226 NIL_226    0.007
3213 C1QT 5.865 38.446 -9.677 c3 226 NIL_226    0.046
3214 N0FE 5.513 40.315 -7.955 n 226 NIL_226   -0.284
3215 C1QU 4.610 37.965 -7.543 c 226 NIL_226    0.510
3216 C1QV 3.684 38.232 -10.452 c3 226 NIL_226    0.105
3217 N0FF 5.058 38.350 -10.902 n 226 NIL_226   -0.285
3218 O0EL 4.530 36.784 -7.830 o 226 NIL_226   -0.544
3219 C1QW 2.638 38.269 -11.544 c 226 NIL_226    0.510
3220 O0EM 1.454 38.337 -11.281 o 226 NIL_226   -0.549
3221 H26U 3.564 37.235 -10.019 h1 226 NIL_226    0.061
3222 H26V 6.751 39.041 -9.855 h1 226 NIL_226    0.050
3223 H26W 6.213 37.446 -9.408 h1 226 NIL_226    0.050
3224 H26X 3.551 40.285 -9.774 hc 226 NIL_226    0.032
3225 H26Y 2.735 39.141 -8.694 hc 226 NIL_226    0.032
3226 C1N2 5.255 46.251 -16.756 c2 227 NIL_227    0.037
3227 C1N3 6.248 47.272 -16.607 c 227 NIL_227    0.510
3228 C1N4 4.290 45.998 -15.857 c2 227 NIL_227   -0.049
3229 C1N5 5.331 45.457 -17.834 c2 227 NIL_227   -0.049
3230 O0DL 6.661 47.774 -17.639 o 227 NIL_227   -0.535
3231 C1N6 3.449 44.974 -16.026 c2 227 NIL_227   -0.057
3232 C1N7 4.495 44.434 -17.995 c2 227 NIL_227   -0.057
3233 C1N8 3.551 44.173 -17.088 c2 227 NIL_227   -0.031
3234 C1N9 2.629 42.984 -17.271 c3 227 NIL_227    0.036
3235 N0EC 2.831 41.853 -16.356 n 227 NIL_227   -0.310
3236 C1NA 4.009 41.230 -16.113 c 227 NIL_227    0.510
3237 C1NB 3.867 39.920 -15.348 c3 227 NIL_227    0.105
3238 O0DM 5.083 41.676 -16.472 o 227 NIL_227   -0.553
3239 N0ED 4.840 38.856 -15.678 n 227 NIL_227   -0.283
3240 C1NC 4.008 40.153 -13.832 c3 227 NIL_227    0.007
3241 C1ND 5.129 38.121 -14.436 c3 227 NIL_227    0.046
3242 C1NE 4.373 38.770 -13.243 c3 227 NIL_227    0.131
3243 N0EE 3.101 38.105 -12.813 n 227 NIL_227   -0.284
3244 C1NF 5.389 38.903 -12.094 c 227 NIL_227    0.510
3245 C1NG 2.208 37.555 -13.863 c3 227 NIL_227    0.015
3246 O0DN 6.461 39.459 -12.238 o 227 NIL_227   -0.544
3247 C1NH 1.795 36.088 -13.605 c3 227 NIL_227   -0.040
3248 C1NI 2.988 35.114 -13.611 c3 227 NIL_227   -0.064
3249 H22Z 3.747 35.412 -12.885 hc 227 NIL_227    0.023
3250 H230 3.447 35.074 -14.600 hc 227 NIL_227    0.023
3251 H231 2.648 34.110 -13.348 hc 227 NIL_227    0.023
3252 H232 1.084 35.784 -14.375 hc 227 NIL_227    0.028
3253 H233 1.275 36.013 -12.648 hc 227 NIL_227    0.028
3254 H234 2.682 37.583 -14.842 h1 227 NIL_227    0.047
3255 H235 1.312 38.181 -13.912 h1 227 NIL_227    0.047
3256 H236 6.200 38.196 -14.251 h1 227 NIL_227    0.050
3257 H237 4.859 37.067 -14.555 h1 227 NIL_227    0.050
3258 H238 4.811 40.873 -13.649 hc 227 NIL_227    0.032
3259 H239 3.089 40.559 -13.403 hc 227 NIL_227    0.032
3260 H23A 2.869 39.534 -15.568 h1 227 NIL_227    0.061
3261 H23B 1.595 43.318 -17.161 h1 227 NIL_227    0.052
3262 H23C 2.731 42.597 -18.289 h1 227 NIL_227    0.052
3263 H23D 4.603 43.797 -18.869 ha 227 NIL_227    0.063
3264 H23E 2.681 44.785 -15.279 ha 227 NIL_227    0.063
3265 H23F 6.107 45.604 -18.582 ha 227 NIL_227    0.063
3266 H23G 4.150 46.618 -14.982 ha 227 NIL_227    0.063
3267 H23H 1.991 41.431 -15.988 hn 227 NIL_227    0.150
3268 C1OK 3.845 51.089 6.444 c3 228 NIL_228   -0.064
3269 C1OL 5.107 50.725 5.641 c3 228 NIL_228   -0.040
3270 C1OM 6.049 49.755 6.393 c3 228 NIL_228    0.015
3271 H24H 6.946 49.626 5.793 h1 228 NIL_228    0.047
3272 H24I 6.400 50.274 7.289 h1 228 NIL_228    0.047
3273 H24J 4.830 50.320 4.668 hc 228 NIL_228    0.028
3274 H24K 5.661 51.644 5.438 hc 228 NIL_228    0.028
3275 H24L 3.232 50.205 6.629 hc 228 NIL_228    0.023
3276 H24M 3.246 51.814 5.890 hc 228 NIL_228    0.023
3277 H24N 4.114 51.538 7.404 hc 228 NIL_228    0.023
3278 O0EA 13.282 41.831 -17.753 o 229 NIL_229   -0.535
3279 C1PJ 13.061 42.445 -16.724 c 229 NIL_229    0.510
3280 C1PK 12.756 43.846 -16.876 c2 229 NIL_229    0.037
3281 C1PL 12.307 44.279 -18.067 c2 229 NIL_229   -0.049
3282 C1PM 12.819 44.756 -15.885 c2 229 NIL_229   -0.049
3283 C1PN 11.907 45.537 -18.249 c2 229 NIL_229   -0.057
3284 C1PO 12.421 46.016 -16.070 c2 229 NIL_229   -0.057
3285 C1PP 11.945 46.418 -17.247 c2 229 NIL_229   -0.031
3286 C1PQ 11.408 47.824 -17.442 c3 229 NIL_229    0.036
3287 N0F1 10.319 48.203 -16.531 n 229 NIL_229   -0.310
3288 C1PR 9.230 47.452 -16.244 c 229 NIL_229    0.510
3289 C1PS 8.223 48.142 -15.334 c3 229 NIL_229    0.105
3290 O0EB 9.082 46.317 -16.659 o 229 NIL_229   -0.553
3291 N0F2 6.837 47.641 -15.431 n 229 NIL_229   -0.283
3292 C1PT 8.653 47.995 -13.858 c3 229 NIL_229    0.007
3293 C1PU 6.291 47.530 -14.072 c3 229 NIL_229    0.046
3294 C1PV 7.333 48.018 -13.033 c3 229 NIL_229    0.131
3295 N0F3 6.993 49.393 -12.499 n 229 NIL_229   -0.284
3296 C1PW 7.356 46.912 -11.959 c 229 NIL_229    0.510
3297 C1PX 7.209 50.566 -13.404 c3 229 NIL_229    0.015
3298 O0EC 7.838 45.812 -12.167 o 229 NIL_229   -0.544
3299 C1PY 6.050 50.923 -14.364 c3 229 NIL_229   -0.040
3300 C1PZ 4.700 51.137 -13.651 c3 229 NIL_229   -0.064
3301 H25I 3.952 51.484 -14.362 hc 229 NIL_229    0.023
3302 H25J 4.795 51.887 -12.863 hc 229 NIL_229    0.023
3303 H25K 4.337 50.207 -13.208 hc 229 NIL_229    0.023
3304 H25L 5.933 50.159 -15.131 hc 229 NIL_229    0.028
3305 H25M 6.315 51.845 -14.886 hc 229 NIL_229    0.028
3306 H25N 8.119 50.453 -13.986 h1 229 NIL_229    0.047
3307 H25O 7.400 51.450 -12.791 h1 229 NIL_229    0.047
3308 H25P 6.041 46.480 -13.895 h1 229 NIL_229    0.050
3309 H25Q 5.377 48.124 -13.989 h1 229 NIL_229    0.050
3310 H25R 9.172 47.039 -13.751 hc 229 NIL_229    0.032
3311 H25S 9.367 48.763 -13.551 hc 229 NIL_229    0.032
3312 H25T 8.209 49.196 -15.619 h1 229 NIL_229    0.061
3313 H25U 12.220 48.544 -17.316 h1 229 NIL_229    0.052
3314 H25V 11.026 47.932 -18.461 h1 229 NIL_229    0.052
3315 H25W 12.463 46.711 -15.234 ha 229 NIL_229    0.063
3316 H25X 11.520 45.833 -19.219 ha 229 NIL_229    0.063
3317 H25Y 13.192 44.524 -14.901 ha 229 NIL_229    0.063
3318 H25Z 12.215 43.603 -18.914 ha 229 NIL_229    0.063
3319 H260 10.365 49.131 -16.138 hn 229 NIL_229    0.150
3320 O0E4 8.329 35.008 18.159 o 230 NIL_230   -0.545
3321 C1OZ 8.247 36.075 17.579 c 230 NIL_230    0.510
3322 C1P0 7.267 36.349 16.425 c3 230 NIL_230    0.128
3323 C1P1 6.010 37.007 17.032 c3 230 NIL_230    0.003
3324 C1P2 6.643 35.014 15.913 c3 230 NIL_230    0.029
3325 N0EV 7.908 37.259 15.412 n 230 NIL_230   -0.275
3326 C1P3 5.269 35.842 17.709 c3 230 NIL_230    0.090
3327 N0EW 5.452 34.726 16.757 n3 230 NIL_230   -0.290
3328 C1P4 3.840 36.189 18.096 c 230 NIL_230    0.510
3329 O0E5 2.900 35.442 17.902 o 230 NIL_230   -0.557
3330 H24Y 5.789 35.608 18.643 h1 230 NIL_230    0.057
3331 H24Z 6.270 35.115 14.893 h1 230 NIL_230    0.046
3332 H250 7.376 34.203 15.937 h1 230 NIL_230    0.046
3333 H251 5.384 37.436 16.246 hc 230 NIL_230    0.032
3334 H252 6.251 37.796 17.747 hc 230 NIL_230    0.032
3335 C1R9 5.906 37.205 10.789 c3 231 NIL_231    0.013
3336 N0FK 6.915 37.006 11.835 n 231 NIL_231   -0.314
3337 C1RA 6.515 36.970 9.387 c3 231 NIL_231   -0.010
3338 C1RB 5.456 36.717 8.282 c3 231 NIL_231    0.101
3339 C1RC 4.784 38.000 7.815 c 231 NIL_231    0.510
3340 N0FL 6.053 35.911 7.220 n 231 NIL_231   -0.302
3341 O0ER 4.295 38.755 8.634 o 231 NIL_231   -0.550
3342 H27A 4.653 36.105 8.704 h1 231 NIL_231    0.061
3343 H27B 7.158 37.810 9.110 hc 231 NIL_231    0.031
3344 H27C 7.160 36.089 9.451 hc 231 NIL_231    0.031
3345 H27D 5.508 38.220 10.862 h1 231 NIL_231    0.047
3346 H27E 5.094 36.492 10.961 h1 231 NIL_231    0.047
3347 H27F 6.491 35.052 7.517 hn 231 NIL_231    0.150
3348 H27G 7.821 36.680 11.530 hn 231 NIL_231    0.149
3349 C1QG 7.851 49.200 19.561 c3 232 NIL_232    0.034
3350 C1QH 6.723 50.127 19.068 c3 232 NIL_232    0.040
3351 N0FA 8.808 49.063 18.457 n 232 NIL_232   -0.286
3352 C1QI 7.423 50.951 17.976 c3 232 NIL_232   -0.005
3353 N0FB 5.616 49.344 18.504 n 232 NIL_232   -0.310
3354 C1QJ 8.402 49.941 17.358 c3 232 NIL_232    0.104
3355 C1QK 9.573 50.545 16.606 c 232 NIL_232    0.510
3356 O0EI 9.500 51.598 16.005 o 232 NIL_232   -0.552
3357 H26I 7.864 49.322 16.634 h1 232 NIL_232    0.061
3358 H26J 6.726 51.357 17.238 hc 232 NIL_232    0.031
3359 H26K 7.974 51.776 18.436 hc 232 NIL_232    0.031
3360 H26L 6.357 50.764 19.879 h1 232 NIL_232    0.052
3361 H26M 8.365 49.665 20.407 h1 232 NIL_232    0.049
3362 H26N 7.464 48.222 19.861 h1 232 NIL_232    0.049
3363 H26O 5.851 48.438 18.127 hn 232 NIL_232    0.150
3364 C1R3 14.384 41.833 0.176 c3 233 NIL_233    0.007
3365 C1R4 14.783 42.592 -1.098 c3 233 NIL_233    0.105
3366 C1R5 13.170 42.622 0.747 c3 233 NIL_233    0.131
3367 N0FI 13.505 42.995 -1.637 n 233 NIL_233   -0.285
3368 C1R6 15.682 41.785 -2.002 c 233 NIL_233    0.510
3369 C1R7 12.754 43.502 -0.484 c3 233 NIL_233    0.046
3370 C1R8 13.718 43.508 1.876 c 233 NIL_233    0.510
3371 N0FJ 12.129 41.655 1.253 n 233 NIL_233   -0.284
3372 O0EP 16.788 41.476 -1.599 o 233 NIL_233   -0.549
3373 O0EQ 14.198 44.610 1.690 o 233 NIL_233   -0.544
3374 H275 11.690 43.489 -0.686 h1 233 NIL_233    0.050
3375 H276 13.030 44.550 -0.349 h1 233 NIL_233    0.050
3376 H277 15.339 43.495 -0.830 h1 233 NIL_233    0.061
3377 H278 14.086 40.815 -0.091 hc 233 NIL_233    0.032
3378 H279 15.219 41.770 0.880 hc 233 NIL_233    0.032
3379 C1SV 8.339 41.671 -7.753 c3 234 NIL_234   -0.064
3380 C1SW 7.565 41.477 -9.072 c3 234 NIL_234   -0.040
3381 C1SX 6.023 41.339 -8.917 c3 234 NIL_234    0.015
3382 H2A9 5.623 42.313 -8.622 h1 234 NIL_234    0.047
3383 H2AA 5.614 41.138 -9.909 h1 234 NIL_234    0.047
3384 H2AB 7.760 42.341 -9.711 hc 234 NIL_234    0.028
3385 H2AC 7.981 40.622 -9.602 hc 234 NIL_234    0.028
3386 H2AD 9.408 41.749 -7.965 hc 234 NIL_234    0.023
3387 H2AE 8.193 40.822 -7.081 hc 234 NIL_234    0.023
3388 H2AF 8.023 42.584 -7.245 hc 234 NIL_234    0.023
3389 C1SL 5.402 33.377 17.373 c3 235 NIL_235   -0.004
3390 C1SM 5.312 32.260 16.315 c3 235 NIL_235   -0.052
3391 H29L 5.250 31.286 16.805 hc 235 NIL_235    0.024
3392 H29M 6.189 32.256 15.664 hc 235 NIL_235    0.024
3393 H29N 4.420 32.390 15.699 hc 235 NIL_235    0.024
3394 H29O 4.521 33.308 18.016 h1 235 NIL_235    0.043
3395 H29P 6.290 33.221 17.993 h1 235 NIL_235    0.043
3396 C1S2 7.438 50.429 -4.000 c3 236 NIL_236    0.015
3397 C1S3 6.473 50.958 -5.085 c3 236 NIL_236   -0.040
3398 C1S4 7.129 52.089 -5.895 c3 236 NIL_236   -0.064
3399 H28K 6.422 52.485 -6.628 hc 236 NIL_236    0.023
3400 H28L 8.007 51.717 -6.428 hc 236 NIL_236    0.023
3401 H28M 7.439 52.907 -5.240 hc 236 NIL_236    0.023
3402 H28N 5.560 51.331 -4.613 hc 236 NIL_236    0.028
3403 H28O 6.183 50.163 -5.772 hc 236 NIL_236    0.028
3404 H28P 8.383 50.134 -4.449 h1 236 NIL_236    0.047
3405 H28Q 7.703 51.271 -3.352 h1 236 NIL_236    0.047
3406 C1Q6 7.135 48.653 -8.981 c3 237 NIL_237    0.007
3407 C1Q7 6.357 48.472 -10.293 c3 237 NIL_237    0.105
3408 C1Q8 7.292 47.215 -8.404 c3 237 NIL_237    0.131
3409 N0F6 6.774 47.172 -10.770 n 237 NIL_237   -0.285
3410 C1Q9 6.538 49.631 -11.235 c 237 NIL_237    0.510
3411 C1QA 6.787 46.314 -9.580 c3 237 NIL_237    0.046
3412 N0F7 8.724 46.955 -7.988 n 237 NIL_237   -0.284
3413 C1QB 6.300 47.165 -7.231 c 237 NIL_237    0.510
3414 O0EF 6.272 50.751 -10.839 o 237 NIL_237   -0.549
3415 O0EG 5.115 46.919 -7.361 o 237 NIL_237   -0.544
3416 H266 7.368 45.405 -9.721 h1 237 NIL_237    0.050
3417 H267 5.755 45.992 -9.426 h1 237 NIL_237    0.050
3418 H268 5.286 48.415 -10.077 h1 237 NIL_237    0.061
3419 H269 8.107 49.106 -9.182 hc 237 NIL_237    0.032
3420 H26A 6.603 49.331 -8.308 hc 237 NIL_237    0.032
3421 N0FG 1.135 41.957 17.143 n 238 NIL_238   -0.298
3422 C1QX 2.258 42.570 17.883 c3 238 NIL_238    0.129
3423 H26Z 0.474 42.586 16.712 hn 238 NIL_238    0.151
3424 C1QY 3.434 42.815 16.903 c3 238 NIL_238    0.006
3425 C1QZ 1.837 43.991 18.340 c3 238 NIL_238    0.045
3426 C1R0 2.742 41.681 19.037 c 238 NIL_238    0.510
3427 C1R1 3.616 44.339 16.804 c3 238 NIL_238    0.105
3428 N0FH 2.426 44.942 17.394 n 238 NIL_238   -0.285
3429 O0EN 3.271 42.121 20.040 o 238 NIL_238   -0.545
3430 C1R2 3.904 44.849 15.402 c 238 NIL_238    0.510
3431 O0EO 4.512 44.171 14.594 o 238 NIL_238   -0.549
3432 H270 4.470 44.631 17.422 h1 238 NIL_238    0.061
3433 H271 0.748 44.094 18.363 h1 238 NIL_238    0.050
3434 H272 2.235 44.223 19.331 h1 238 NIL_238    0.050
3435 H273 3.203 42.389 15.922 hc 238 NIL_238    0.032
3436 H274 4.362 42.351 17.248 hc 238 NIL_238    0.032
3437 C1NQ 7.029 47.908 -3.604 c3 239 NIL_239    0.131
3438 C1NR 8.415 47.623 -4.268 c3 239 NIL_239    0.007
3439 C1NS 6.044 47.561 -4.758 c3 239 NIL_239    0.046
3440 N0EH 6.858 49.345 -3.152 n 239 NIL_239   -0.284
3441 C1NT 6.741 46.872 -2.500 c 239 NIL_239    0.510
3442 C1NU 8.180 47.850 -5.775 c3 239 NIL_239    0.105
3443 N0EI 6.800 47.470 -6.015 n 239 NIL_239   -0.285
3444 O0DQ 7.059 45.701 -2.606 o 239 NIL_239   -0.544
3445 C1NV 9.169 47.210 -6.721 c 239 NIL_239    0.510
3446 O0DR 10.306 46.961 -6.362 o 239 NIL_239   -0.549
3447 H23R 8.253 48.911 -6.013 h1 239 NIL_239    0.061
3448 H23S 5.566 46.591 -4.591 h1 239 NIL_239    0.050
3449 H23T 5.259 48.317 -4.843 h1 239 NIL_239    0.050
3450 H23U 8.718 46.582 -4.136 hc 239 NIL_239    0.032
3451 H23V 9.220 48.243 -3.869 hc 239 NIL_239    0.032
3452 C1ML 11.696 39.732 -16.369 c 240 NIL_240    0.510
3453 C1MM 12.844 40.249 -15.513 c3 240 NIL_240    0.105
3454 O0DI 10.771 40.436 -16.727 o 240 NIL_240   -0.553
3455 N0E9 11.788 38.417 -16.683 n 240 NIL_240   -0.310
3456 N0EA 13.056 41.713 -15.566 n 240 NIL_240   -0.283
3457 C1MN 12.622 39.866 -14.032 c3 240 NIL_240    0.007
3458 C1MO 10.934 37.694 -17.637 c3 240 NIL_240    0.036
3459 C1MP 13.193 42.202 -14.191 c3 240 NIL_240    0.046
3460 C1MQ 13.255 41.017 -13.202 c3 240 NIL_240    0.131
3461 C1MR 9.437 37.878 -17.471 c2 240 NIL_240   -0.031
3462 N0EB 14.684 40.752 -12.782 n 240 NIL_240   -0.284
3463 C1MS 12.325 41.436 -12.049 c 240 NIL_240    0.510
3464 C1MT 8.752 37.212 -16.538 c2 240 NIL_240   -0.057
3465 C1MU 8.777 38.732 -18.254 c2 240 NIL_240   -0.057
3466 C1MV 15.578 40.036 -13.742 c3 240 NIL_240    0.015
3467 O0DJ 11.111 41.400 -12.136 o 240 NIL_240   -0.544
3468 C1MW 7.445 37.425 -16.366 c2 240 NIL_240   -0.049
3469 C1MX 7.474 38.949 -18.082 c2 240 NIL_240   -0.049
3470 C1MY 16.427 40.964 -14.642 c3 240 NIL_240   -0.040
3471 C1MZ 6.785 38.319 -17.120 c2 240 NIL_240    0.037
3472 C1N0 17.218 40.146 -15.683 c3 240 NIL_240   -0.064
3473 C1N1 5.421 38.704 -16.906 c 240 NIL_240    0.510
3474 O0DK 4.789 39.039 -17.892 o 240 NIL_240   -0.535
3475 H22G 17.874 39.423 -15.192 hc 240 NIL_240    0.023
3476 H22H 17.835 40.805 -16.298 hc 240 NIL_240    0.023
3477 H22I 16.539 39.602 -16.344 hc 240 NIL_240    0.023
3478 H22J 17.127 41.536 -14.028 hc 240 NIL_240    0.028
3479 H22K 15.797 41.680 -15.171 hc 240 NIL_240    0.028
3480 H22L 6.997 39.694 -18.715 ha 240 NIL_240    0.063
3481 H22M 6.940 36.845 -15.605 ha 240 NIL_240    0.063
3482 H22N 15.028 39.345 -14.372 h1 240 NIL_240    0.047
3483 H22O 16.265 39.406 -13.167 h1 240 NIL_240    0.047
3484 H22P 9.308 39.291 -19.020 ha 240 NIL_240    0.063
3485 H22Q 9.265 36.503 -15.890 ha 240 NIL_240    0.063
3486 H22R 12.318 42.822 -13.976 h1 240 NIL_240    0.050
3487 H22S 14.099 42.807 -14.096 h1 240 NIL_240    0.050
3488 H22T 11.176 36.632 -17.554 h1 240 NIL_240    0.052
3489 H22U 11.228 38.012 -18.639 h1 240 NIL_240    0.052
3490 H22V 11.547 39.790 -13.856 hc 240 NIL_240    0.032
3491 H22W 13.034 38.885 -13.783 hc 240 NIL_240    0.032
3492 H22X 13.753 39.774 -15.887 h1 240 NIL_240    0.061
3493 H22Y 12.576 37.904 -16.317 hn 240 NIL_240    0.150
3494 C1SP 9.595 43.369 0.858 c3 241 NIL_241   -0.064
3495 C1SQ 9.666 41.835 0.778 c3 241 NIL_241   -0.040
3496 C1SR 11.034 41.256 0.337 c3 241 NIL_241    0.015
3497 H29V 10.961 40.164 0.349 h1 241 NIL_241    0.047
3498 H29W 11.243 41.523 -0.698 h1 241 NIL_241    0.047
3499 H29X 9.411 41.436 1.760 hc 241 NIL_241    0.028
3500 H29Y 8.897 41.496 0.090 hc 241 NIL_241    0.028
3501 H29Z 9.661 43.811 -0.137 hc 241 NIL_241    0.023
3502 H2A0 10.394 43.768 1.486 hc 241 NIL_241    0.023
3503 H2A1 8.640 43.671 1.295 hc 241 NIL_241    0.023
3504 C1RP 17.017 41.241 -5.079 c3 242 NIL_242   -0.040
3505 C1RQ 16.093 40.528 -4.066 c3 242 NIL_242    0.015
3506 C1RR 17.949 40.231 -5.774 c3 242 NIL_242   -0.064
3507 H281 18.552 39.688 -5.041 hc 242 NIL_242    0.023
3508 H282 18.627 40.748 -6.456 hc 242 NIL_242    0.023
3509 H283 17.369 39.507 -6.350 hc 242 NIL_242    0.023
3510 H284 15.505 39.770 -4.577 h1 242 NIL_242    0.047
3511 H285 16.737 39.951 -3.395 h1 242 NIL_242    0.047
3512 H286 17.619 41.991 -4.561 hc 242 NIL_242    0.028
3513 H287 16.435 41.750 -5.847 hc 242 NIL_242    0.028
3514 C1SJ 4.651 47.039 13.117 c 243 NIL_243    0.510
3515 C1SK 3.345 46.492 13.661 c3 243 NIL_243    0.092
3516 O0EY 5.552 47.445 13.826 o 243 NIL_243   -0.557
3517 H29J 2.553 47.212 13.459 h1 243 NIL_243    0.057
3518 H29K 3.104 45.609 13.062 h1 243 NIL_243    0.057
3519 C1QL 14.085 43.655 4.354 c3 244 NIL_244    0.046
3520 C1QM 13.584 42.820 5.565 c3 244 NIL_244    0.131
3521 N0FC 13.647 42.992 3.124 n 244 NIL_244   -0.285
3522 C1QN 12.851 41.605 4.917 c3 244 NIL_244    0.007
3523 N0FD 14.708 42.373 6.458 n 244 NIL_244   -0.284
3524 C1QO 12.520 43.678 6.261 c 244 NIL_244    0.510
3525 C1QP 13.247 41.626 3.429 c3 244 NIL_244    0.105
3526 O0EJ 11.537 44.095 5.677 o 244 NIL_244   -0.547
3527 C1QQ 12.203 41.075 2.484 c 244 NIL_244    0.510
3528 O0EK 11.458 40.177 2.831 o 244 NIL_244   -0.549
3529 H26P 14.124 40.993 3.276 h1 244 NIL_244    0.061
3530 H26Q 11.766 41.704 5.002 hc 244 NIL_244    0.032
3531 H26R 13.119 40.652 5.380 hc 244 NIL_244    0.032
3532 H26S 13.687 44.673 4.377 h1 244 NIL_244    0.050
3533 H26T 15.170 43.721 4.344 h1 244 NIL_244    0.050
3534 C1NW 6.133 36.232 5.917 c 245 NIL_245    0.510
3535 C1NX 5.435 37.498 5.412 c3 245 NIL_245    0.131
3536 O0DS 6.735 35.482 5.172 o 245 NIL_245   -0.547
3537 C1NY 6.499 38.367 4.671 c3 245 NIL_245    0.007
3538 C1NZ 4.488 37.020 4.274 c3 245 NIL_245    0.046
3539 N0EJ 4.719 38.276 6.479 n 245 NIL_245   -0.284
3540 C1O0 5.945 38.566 3.247 c3 245 NIL_245    0.105
3541 N0EK 5.099 37.417 3.001 n 245 NIL_245   -0.285
3542 C1O1 6.989 38.819 2.183 c 245 NIL_245    0.510
3543 O0DT 8.006 39.423 2.464 o 245 NIL_245   -0.549
3544 H23W 5.297 39.444 3.221 h1 245 NIL_245    0.061
3545 H23X 4.339 35.936 4.299 h1 245 NIL_245    0.050
3546 H23Y 3.511 37.499 4.344 h1 245 NIL_245    0.050
3547 H23Z 7.461 37.851 4.615 hc 245 NIL_245    0.032
3548 H240 6.682 39.325 5.163 hc 245 NIL_245    0.032
3549 C1RJ 12.944 37.466 -9.057 c3 246 NIL_246   -0.064
3550 C1RK 12.205 38.538 -9.881 c3 246 NIL_246   -0.040
3551 C1RL 11.424 39.536 -8.992 c3 246 NIL_246    0.015
3552 H27N 10.831 40.177 -9.638 h1 246 NIL_246    0.047
3553 H27O 10.686 38.958 -8.430 h1 246 NIL_246    0.047
3554 H27P 12.909 39.060 -10.530 hc 246 NIL_246    0.028
3555 H27Q 11.495 38.042 -10.545 hc 246 NIL_246    0.028
3556 H27R 13.404 36.733 -9.723 hc 246 NIL_246    0.023
3557 H27S 12.248 36.939 -8.400 hc 246 NIL_246    0.023
3558 H27T 13.729 37.912 -8.442 hc 246 NIL_246    0.023
3559 C1ON 7.048 47.184 5.203 c3 247 NIL_247    0.007
3560 C1OO 6.924 47.830 3.810 c3 247 NIL_247    0.105
3561 C1OP 5.625 47.290 5.825 c3 247 NIL_247    0.131
3562 N0ER 5.561 47.564 3.387 n 247 NIL_247   -0.285
3563 C1OQ 7.999 47.402 2.837 c 247 NIL_247    0.510
3564 C1OR 4.704 47.473 4.581 c3 247 NIL_247    0.046
3565 N0ES 5.494 48.428 6.808 n 247 NIL_247   -0.284
3566 C1OS 5.260 45.915 6.404 c 247 NIL_247    0.510
3567 O0E0 9.146 47.272 3.223 o 247 NIL_247   -0.549
3568 O0E1 5.283 44.897 5.737 o 247 NIL_247   -0.547
3569 H24O 4.024 46.624 4.458 h1 247 NIL_247    0.050
3570 H24P 4.086 48.366 4.673 h1 247 NIL_247    0.050
3571 H24Q 7.024 48.914 3.885 h1 247 NIL_247    0.061
3572 H24R 7.342 46.140 5.068 hc 247 NIL_247    0.032
3573 H24S 7.821 47.653 5.816 hc 247 NIL_247    0.032
3574 C1NJ 6.717 37.176 13.161 c 248 NIL_248    0.510
3575 C1NK 7.933 36.815 13.995 c3 248 NIL_248    0.092
3576 O0DO 5.664 37.572 13.623 o 248 NIL_248   -0.557
3577 H23I 8.071 35.733 13.933 h1 248 NIL_248    0.057
3578 H23J 8.796 37.259 13.492 h1 248 NIL_248    0.057
3579 C1S5 9.694 46.490 -9.030 c3 249 NIL_249    0.015
3580 C1S6 10.288 47.589 -9.945 c3 249 NIL_249   -0.040
3581 C1S7 11.091 48.640 -9.155 c3 249 NIL_249   -0.064
3582 H28R 11.564 49.345 -9.843 hc 249 NIL_249    0.023
3583 H28S 11.875 48.160 -8.565 hc 249 NIL_249    0.023
3584 H28T 10.444 49.203 -8.479 hc 249 NIL_249    0.023
3585 H28U 9.509 48.076 -10.532 hc 249 NIL_249    0.028
3586 H28V 10.954 47.112 -10.666 hc 249 NIL_249    0.028
3587 H28W 9.264 45.718 -9.663 h1 249 NIL_249    0.047
3588 H28X 10.533 46.001 -8.532 h1 249 NIL_249    0.047
3589 C1OE 13.356 42.549 -7.434 c 250 NIL_250    0.510
3590 C1OF 12.972 41.555 -8.542 c3 250 NIL_250    0.131
3591 O0DY 13.556 43.733 -7.635 o 250 NIL_250   -0.544
3592 C1OG 14.327 41.171 -9.206 c3 250 NIL_250    0.007
3593 C1OH 12.217 42.298 -9.689 c3 250 NIL_250    0.046
3594 N0EP 12.247 40.330 -8.027 n 250 NIL_250   -0.284
3595 C1OI 14.308 41.839 -10.589 c3 250 NIL_250    0.105
3596 N0EQ 12.901 41.914 -10.925 n 250 NIL_250   -0.285
3597 C1OJ 15.206 41.144 -11.585 c 250 NIL_250    0.510
3598 O0DZ 16.373 40.953 -11.299 o 250 NIL_250   -0.549
3599 H24C 14.676 42.866 -10.501 h1 250 NIL_250    0.061
3600 H24D 11.147 42.092 -9.711 h1 250 NIL_250    0.050
3601 H24E 12.317 43.383 -9.605 h1 250 NIL_250    0.050
3602 H24F 14.426 40.091 -9.303 hc 250 NIL_250    0.032
3603 H24G 15.194 41.511 -8.634 hc 250 NIL_250    0.032
3604 N0FQ 4.747 47.008 11.770 n 251 NIL_251   -0.314
3605 C1RY 5.957 47.359 11.018 c3 251 NIL_251    0.013
3606 C1RZ 6.059 46.592 9.681 c3 251 NIL_251   -0.010
3607 C1S0 4.913 46.887 8.678 c3 251 NIL_251    0.101
3608 C1S1 5.066 48.281 8.096 c 251 NIL_251    0.510
3609 N0FR 4.873 45.821 7.687 n 251 NIL_251   -0.302
3610 O0EW 4.823 49.246 8.798 o 251 NIL_251   -0.550
3611 H28D 3.953 46.870 9.202 h1 251 NIL_251    0.061
3612 H28E 7.018 46.822 9.209 hc 251 NIL_251    0.031
3613 H28F 6.073 45.522 9.911 hc 251 NIL_251    0.031
3614 H28G 6.831 47.103 11.622 h1 251 NIL_251    0.047
3615 H28H 5.972 48.437 10.843 h1 251 NIL_251    0.047
3616 H28I 4.613 44.909 8.031 hn 251 NIL_251    0.150
3617 H28J 3.960 46.670 11.237 hn 251 NIL_251    0.149
3618 C1PB 17.749 43.950 16.418 c3 252 NIL_252   -0.004
3619 C1PC 17.624 42.633 15.619 c3 252 NIL_252   -0.052
3620 H258 18.618 42.269 15.355 hc 252 NIL_252    0.024
3621 H259 17.068 42.780 14.691 hc 252 NIL_252    0.024
3622 H25A 17.127 41.854 16.197 hc 252 NIL_252    0.024
3623 H25B 18.422 43.805 17.264 h1 252 NIL_252    0.043
3624 H25C 18.211 44.699 15.770 h1 252 NIL_252    0.043
3625 H27H 11.788 36.763 16.851 hn 253 NIL_253    0.151
3626 N0FM 12.117 37.564 17.369 n 253 NIL_253   -0.298
3627 C1RD 11.188 38.148 18.361 c3 253 NIL_253    0.129
3628 C1RE 10.274 39.183 17.666 c3 253 NIL_253    0.006
3629 C1RF 10.196 37.059 18.827 c3 253 NIL_253    0.045
3630 C1RG 11.923 38.821 19.524 c 253 NIL_253    0.510
3631 C1RH 8.986 38.426 17.283 c3 253 NIL_253    0.105
3632 N0FN 9.069 37.101 17.894 n 253 NIL_253   -0.285
3633 O0ES 11.443 38.934 20.636 o 253 NIL_253   -0.545
3634 C1RI 8.668 38.328 15.797 c 253 NIL_253    0.510
3635 O0ET 9.103 39.133 14.995 o 253 NIL_253   -0.549
3636 H27I 8.139 38.951 17.732 h1 253 NIL_253    0.061
3637 H27J 10.667 36.071 18.827 h1 253 NIL_253    0.050
3638 H27K 9.808 37.275 19.825 h1 253 NIL_253    0.050
3639 H27L 10.769 39.655 16.815 hc 253 NIL_253    0.032
3640 H27M 10.006 39.979 18.366 hc 253 NIL_253    0.032
3641 C1SN 1.326 51.178 15.353 c3 254 NIL_254   -0.052
3642 C1SO 2.520 50.699 16.205 c3 254 NIL_254   -0.004
3643 H29Q 3.429 50.722 15.597 h1 254 NIL_254    0.043
3644 H29R 2.632 51.418 17.017 h1 254 NIL_254    0.043
3645 H29S 0.420 51.231 15.961 hc 254 NIL_254    0.024
3646 H29T 1.140 50.514 14.506 hc 254 NIL_254    0.024
3647 H29U 1.530 52.176 14.959 hc 254 NIL_254    0.024
3648 C1NL 13.787 39.242 17.925 c3 255 NIL_255    0.104
3649 N0EF 13.167 39.276 19.250 n 255 NIL_255   -0.286
3650 C1NM 15.298 39.376 18.175 c3 255 NIL_255   -0.005
3651 C1NN 13.347 38.054 17.092 c 255 NIL_255    0.510
3652 C1NO 14.133 39.802 20.223 c3 255 NIL_255    0.034
3653 C1NP 15.348 40.289 19.413 c3 255 NIL_255    0.040
3654 O0DP 14.046 37.546 16.239 o 255 NIL_255   -0.552
3655 N0EG 15.163 41.694 19.024 n 255 NIL_255   -0.310
3656 H23K 16.280 40.171 19.975 h1 255 NIL_255    0.052
3657 H23L 14.436 38.987 20.885 h1 255 NIL_255    0.049
3658 H23M 13.692 40.611 20.813 h1 255 NIL_255    0.049
3659 H23N 15.830 39.795 17.315 hc 255 NIL_255    0.031
3660 H23O 15.730 38.403 18.420 hc 255 NIL_255    0.031
3661 H23P 13.440 40.130 17.387 h1 255 NIL_255    0.061
3662 H23Q 14.209 42.000 18.902 hn 255 NIL_255    0.150
3663 C1RS 5.829 46.520 -0.170 c3 256 NIL_256    0.046
3664 C1RT 6.248 47.452 1.013 c3 256 NIL_256    0.131
3665 N0FO 6.077 47.285 -1.396 n 256 NIL_256   -0.285
3666 C1RU 6.189 48.864 0.361 c3 256 NIL_256    0.007
3667 C1RV 5.159 47.436 2.102 c 256 NIL_256    0.510
3668 N0FP 7.636 47.169 1.543 n 256 NIL_256   -0.284
3669 C1RW 5.697 48.646 -1.082 c3 256 NIL_256    0.105
3670 O0EU 3.975 47.330 1.844 o 256 NIL_256   -0.544
3671 C1RX 6.185 49.716 -2.026 c 256 NIL_256    0.510
3672 O0EV 5.969 50.883 -1.754 o 256 NIL_256   -0.549
3673 H288 4.604 48.692 -1.105 h1 256 NIL_256    0.061
3674 H289 7.175 49.333 0.359 hc 256 NIL_256    0.032
3675 H28A 5.515 49.545 0.887 hc 256 NIL_256    0.032
3676 H28B 6.338 45.556 -0.158 h1 256 NIL_256    0.050
3677 H28C 4.758 46.309 -0.149 h1 256 NIL_256    0.050
3678 C1QC 13.398 43.376 9.836 c3 257 NIL_257   -0.010
3679 C1QD 13.839 43.684 8.383 c3 257 NIL_257    0.101
3680 C1QE 14.493 43.731 10.865 c3 257 NIL_257    0.013
3681 C1QF 14.763 42.623 7.797 c 257 NIL_257    0.510
3682 N0F8 12.676 43.994 7.557 n 257 NIL_257   -0.302
3683 N0F9 14.078 43.406 12.232 n 257 NIL_257   -0.314
3684 O0EH 15.536 42.014 8.513 o 257 NIL_257   -0.550
3685 H26B 15.410 43.176 10.658 h1 257 NIL_257    0.047
3686 H26C 14.720 44.797 10.793 h1 257 NIL_257    0.047
3687 H26D 14.431 44.602 8.399 h1 257 NIL_257    0.061
3688 H26E 13.121 42.323 9.924 hc 257 NIL_257    0.031
3689 H26F 12.506 43.962 10.080 hc 257 NIL_257    0.031
3690 H26G 14.084 42.432 12.492 hn 257 NIL_257    0.149
3691 H26H 11.959 44.553 7.993 hn 257 NIL_257    0.150
3692 N0F4 2.876 38.741 -3.167 n 258 NIL_258   -0.284
3693 C1Q0 4.149 38.289 -3.844 c3 258 NIL_258    0.131
3694 C1Q1 4.961 39.528 -4.329 c3 258 NIL_258    0.007
3695 C1Q2 3.926 37.502 -5.173 c3 258 NIL_258    0.046
3696 C1Q3 5.055 37.407 -2.964 c 258 NIL_258    0.510
3697 C1Q4 4.509 39.713 -5.787 c3 258 NIL_258    0.105
3698 N0F5 4.370 38.361 -6.280 n 258 NIL_258   -0.285
3699 O0ED 6.108 36.963 -3.385 o 258 NIL_258   -0.544
3700 C1Q5 5.315 40.657 -6.648 c 258 NIL_258    0.510
3701 O0EE 5.712 41.707 -6.179 o 258 NIL_258   -0.549
3702 H261 3.518 40.153 -5.803 h1 258 NIL_258    0.061
3703 H262 4.504 36.573 -5.196 h1 258 NIL_258    0.050
3704 H263 2.877 37.235 -5.310 h1 258 NIL_258    0.050
3705 H264 6.036 39.329 -4.320 hc 258 NIL_258    0.032
3706 H265 4.788 40.413 -3.716 hc 258 NIL_258    0.032
3707 C1MI 8.519 39.733 -2.268 c3 259 NIL_259   -0.064
3708 C1MJ 7.381 39.558 -1.244 c3 259 NIL_259   -0.040
3709 C1MK 7.762 38.537 -0.149 c3 259 NIL_259    0.015
3710 H229 8.036 37.587 -0.603 h1 259 NIL_259    0.047
3711 H22A 8.691 38.895 0.300 h1 259 NIL_259    0.047
3712 H22B 7.137 40.520 -0.790 hc 259 NIL_259    0.028
3713 H22C 6.494 39.232 -1.777 hc 259 NIL_259    0.028
3714 H22D 9.424 40.112 -1.793 hc 259 NIL_259    0.023
3715 H22E 8.222 40.439 -3.046 hc 259 NIL_259    0.023
3716 H22F 8.757 38.778 -2.742 hc 259 NIL_259    0.023
3717 C1P5 13.962 42.762 -5.009 c3 260 NIL_260    0.046
3718 C1P6 13.872 41.805 -3.786 c3 260 NIL_260    0.131
3719 N0EX 13.523 42.030 -6.201 n 260 NIL_260   -0.285
3720 C1P7 13.109 40.570 -4.358 c3 260 NIL_260    0.007
3721 N0EY 15.234 41.432 -3.240 n 260 NIL_260   -0.284
3722 C1P8 12.964 42.552 -2.793 c 260 NIL_260    0.510
3723 C1P9 13.371 40.625 -5.873 c3 260 NIL_260    0.105
3724 O0E6 11.795 42.786 -3.044 o 260 NIL_260   -0.544
3725 C1PA 12.384 39.884 -6.745 c 260 NIL_260    0.510
3726 O0E7 11.769 38.927 -6.312 o 260 NIL_260   -0.549
3727 H253 14.326 40.154 -6.107 h1 260 NIL_260    0.061
3728 H254 12.033 40.645 -4.188 hc 260 NIL_260    0.032
3729 H255 13.436 39.625 -3.916 hc 260 NIL_260    0.032
3730 H256 13.301 43.626 -4.891 h1 260 NIL_260    0.050
3731 H257 14.977 43.140 -5.143 h1 260 NIL_260    0.050
3732 C1SG 0.735 41.450 -4.974 c3 261 NIL_261   -0.064
3733 C1SH 1.717 40.884 -3.931 c3 261 NIL_261   -0.040
3734 C1SI 1.810 39.341 -4.024 c3 261 NIL_261    0.015
3735 H29C 0.848 38.917 -3.720 h1 261 NIL_261    0.047
3736 H29D 1.938 39.069 -5.071 h1 261 NIL_261    0.047
3737 H29E 2.695 41.339 -4.089 hc 261 NIL_261    0.028
3738 H29F 1.388 41.179 -2.932 hc 261 NIL_261    0.028
3739 H29G -0.265 41.031 -4.840 hc 261 NIL_261    0.023
3740 H29H 1.072 41.223 -5.989 hc 261 NIL_261    0.023
3741 H29I 0.666 42.534 -4.872 hc 261 NIL_261    0.023
3742 C1SS 17.536 43.171 5.483 c3 262 NIL_262   -0.064
3743 C1ST 17.177 41.753 5.962 c3 262 NIL_262   -0.040
3744 C1SU 15.669 41.413 5.839 c3 262 NIL_262    0.015
3745 H2A2 15.469 41.317 4.775 h1 262 NIL_262    0.047
3746 H2A3 15.503 40.430 6.290 h1 262 NIL_262    0.047
3747 H2A4 17.740 41.033 5.362 hc 262 NIL_262    0.028
3748 H2A5 17.517 41.626 6.991 hc 262 NIL_262    0.028
3749 H2A6 17.028 43.925 6.089 hc 262 NIL_262    0.023
3750 H2A7 17.261 43.305 4.436 hc 262 NIL_262    0.023
3751 H2A8 18.612 43.335 5.567 hc 262 NIL_262    0.023
3752 C1SY 13.260 43.691 14.469 c3 263 NIL_263    0.092
3753 C1SZ 13.669 44.308 13.147 c 263 NIL_263    0.510
3754 O0EZ 13.630 45.504 12.923 o 263 NIL_263   -0.557
3755 H2AG 12.364 43.095 14.274 h1 263 NIL_263    0.057
3756 H2AH 14.041 42.994 14.781 h1 263 NIL_263    0.057
3757 C1O2 4.365 38.621 0.086 c3 264 NIL_264    0.007
3758 C1O3 3.610 37.828 -0.989 c3 264 NIL_264    0.105
3759 C1O4 5.456 37.620 0.574 c3 264 NIL_264    0.131
3760 N0EL 4.668 37.136 -1.694 n 264 NIL_264   -0.285
3761 C1O5 2.655 38.644 -1.826 c 264 NIL_264    0.510
3762 C1O6 5.543 36.613 -0.632 c3 264 NIL_264    0.046
3763 C1O7 4.799 36.925 1.781 c 264 NIL_264    0.510
3764 N0EM 6.743 38.336 0.929 n 264 NIL_264   -0.284
3765 O0DU 1.681 39.144 -1.295 o 264 NIL_264   -0.549
3766 O0DV 4.011 36.003 1.676 o 264 NIL_264   -0.544
3767 H241 6.550 36.450 -1.002 h1 264 NIL_264    0.050
3768 H242 5.171 35.625 -0.352 h1 264 NIL_264    0.050
3769 H243 2.989 37.072 -0.502 h1 264 NIL_264    0.061
3770 H244 4.803 39.520 -0.352 hc 264 NIL_264    0.032
3771 H245 3.697 38.943 0.889 hc 264 NIL_264    0.032
3772 C1RM 2.549 39.560 6.077 c3 265 NIL_265   -0.040
3773 C1RN 4.093 39.552 6.032 c3 265 NIL_265    0.015
3774 C1RO 2.010 40.963 5.742 c3 265 NIL_265   -0.064
3775 H27U 2.334 41.275 4.746 hc 265 NIL_265    0.023
3776 H27V 2.371 41.696 6.468 hc 265 NIL_265    0.023
3777 H27W 0.918 40.968 5.767 hc 265 NIL_265    0.023
3778 H27X 4.385 39.800 5.014 h1 265 NIL_265    0.047
3779 H27Y 4.471 40.357 6.670 h1 265 NIL_265    0.047
3780 H27Z 2.198 39.273 7.071 hc 265 NIL_265    0.028
3781 H280 2.141 38.841 5.364 hc 265 NIL_265    0.028
3782 O0E8 3.988 50.836 18.870 o 266 NIL_266   -0.557
3783 C1PD 4.338 49.775 18.391 c 266 NIL_266    0.510
3784 C1PE 3.364 48.817 17.699 c3 266 NIL_266    0.090
3785 N0EZ 2.325 49.327 16.754 n3 266 NIL_266   -0.290
3786 C1PF 4.027 47.656 16.931 c3 266 NIL_266    0.003
3787 C1PG 2.150 48.299 15.686 c3 266 NIL_266    0.029
3788 C1PH 2.871 47.001 16.148 c3 266 NIL_266    0.128
3789 N0F0 3.414 46.082 15.088 n 266 NIL_266   -0.275
3790 C1PI 2.017 46.210 17.153 c 266 NIL_266    0.510
3791 O0E9 1.024 46.661 17.692 o 266 NIL_266   -0.545
3792 H25D 2.641 48.689 14.792 h1 266 NIL_266    0.046
3793 H25E 1.094 48.125 15.465 h1 266 NIL_266    0.046
3794 H25F 4.772 48.053 16.237 hc 266 NIL_266    0.032
3795 H25G 4.524 46.956 17.607 hc 266 NIL_266    0.032
3796 H25H 2.824 48.363 18.534 h1 266 NIL_266    0.057
3797 C1SB 1.988 39.743 17.666 c3 267 NIL_267    0.104
3798 N0FS 2.532 40.352 18.881 n 267 NIL_267   -0.286
3799 C1SC 1.471 38.361 18.088 c3 267 NIL_267   -0.005
3800 C1SD 0.982 40.628 16.956 c 267 NIL_267    0.510
3801 C1SE 2.727 39.308 19.898 c3 267 NIL_267    0.034
3802 C1SF 2.445 37.957 19.208 c3 267 NIL_267    0.040
3803 O0EX 0.077 40.190 16.275 o 267 NIL_267   -0.552
3804 N0FT 3.698 37.399 18.681 n 267 NIL_267   -0.310
3805 H295 1.993 37.242 19.900 h1 267 NIL_267    0.052
3806 H296 2.005 39.468 20.704 h1 267 NIL_267    0.049
3807 H297 3.743 39.347 20.304 h1 267 NIL_267    0.049
3808 H298 1.454 37.655 17.255 hc 267 NIL_267    0.031
3809 H299 0.461 38.446 18.500 hc 267 NIL_267    0.031
3810 H29A 2.823 39.613 16.971 h1 267 NIL_267    0.061
3811 H29B 4.522 37.970 18.794 hn 267 NIL_267    0.150
3812 C1O8 10.879 48.521 17.276 c3 268 NIL_268    0.129
3813 C1O9 10.591 47.413 16.246 c3 268 NIL_268    0.006
3814 C1OA 12.358 48.248 17.652 c3 268 NIL_268    0.045
3815 N0EN 10.731 49.851 16.653 n 268 NIL_268   -0.298
3816 C1OB 9.938 48.318 18.468 c 268 NIL_268    0.510
3817 C1OC 11.482 46.250 16.696 c3 268 NIL_268    0.105
3818 N0EO 12.682 46.875 17.234 n 268 NIL_268   -0.285
3819 H246 11.542 50.231 16.188 hn 268 NIL_268    0.151
3820 O0DW 10.183 47.557 19.386 o 268 NIL_268   -0.545
3821 C1OD 11.730 45.227 15.613 c 268 NIL_268    0.510
3822 O0DX 10.836 44.908 14.852 o 268 NIL_268   -0.549
3823 H247 10.997 45.716 17.518 h1 268 NIL_268    0.061
3824 H248 13.016 48.933 17.109 h1 268 NIL_268    0.050
3825 H249 12.529 48.367 18.725 h1 268 NIL_268    0.050
3826 H24A 10.898 47.740 15.248 hc 268 NIL_268    0.032
3827 H24B 9.535 47.134 16.207 hc 268 NIL_268    0.032
3828 C1S8 9.444 47.736 -0.186 c3 269 NIL_269   -0.040
3829 C1S9 8.669 46.656 0.593 c3 269 NIL_269    0.015
3830 C1SA 10.588 47.096 -0.995 c3 269 NIL_269   -0.064
3831 H28Y 11.119 47.856 -1.573 hc 269 NIL_269    0.023
3832 H28Z 10.196 46.347 -1.688 hc 269 NIL_269    0.023
3833 H290 11.305 46.610 -0.329 hc 269 NIL_269    0.023
3834 H291 8.259 45.945 -0.118 h1 269 NIL_269    0.047
3835 H292 9.403 46.088 1.171 h1 269 NIL_269    0.047
3836 H293 9.857 48.471 0.509 hc 269 NIL_269    0.028
3837 H294 8.779 48.259 -0.873 hc 269 NIL_269    0.028
3838 O0E2 14.830 46.889 17.808 o 270 NIL_270   -0.545
3839 C1OT 13.913 46.319 17.246 c 270 NIL_270    0.510
3840 C1OU 14.099 44.994 16.485 c3 270 NIL_270    0.128
3841 C1OV 14.223 43.852 17.516 c3 270 NIL_270    0.003
3842 C1OW 15.524 44.995 15.857 c3 270 NIL_270    0.029
3843 N0ET 12.983 44.703 15.517 n 270 NIL_270   -0.275
3844 C1OX 15.686 43.863 18.023 c3 270 NIL_270    0.090
3845 N0EU 16.448 44.488 16.899 n3 270 NIL_270   -0.290
3846 C1OY 16.146 42.536 18.640 c 270 NIL_270    0.510
3847 O0E3 17.315 42.249 18.816 o 270 NIL_270   -0.557
3848 H24T 15.719 44.571 18.857 h1 270 NIL_270    0.057
3849 H24U 15.588 44.335 14.998 h1 270 NIL_270    0.046
3850 H24V 15.819 45.996 15.528 h1 270 NIL_270    0.046
3851 H24W 14.026 42.900 17.020 hc 270 NIL_270    0.032
3852 H24X 13.503 43.957 18.332 hc 270 NIL_270    0.032
3853 C0M5 30.462 14.183 -5.009 c3 271 NIL_271    0.046
3854 C0M6 30.372 13.226 -3.786 c3 271 NIL_271    0.131
3855 N05F 30.023 13.451 -6.201 n 271 NIL_271   -0.285
3856 C0M7 29.609 11.991 -4.358 c3 271 NIL_271    0.007
3857 N05G 31.734 12.853 -3.240 n 271 NIL_271   -0.284
3858 C0M8 29.464 13.973 -2.793 c 271 NIL_271    0.510
3859 C0M9 29.871 12.046 -5.873 c3 271 NIL_271    0.105
3860 O056 28.295 14.207 -3.044 o 271 NIL_271   -0.544
3861 C0MA 28.884 11.305 -6.745 c 271 NIL_271    0.510
3862 O057 28.269 10.348 -6.312 o 271 NIL_271   -0.549
3863 H0RL 30.826 11.575 -6.107 h1 271 NIL_271    0.061
3864 H0RM 28.533 12.066 -4.188 hc 271 NIL_271    0.032
3865 H0RN 29.936 11.046 -3.916 hc 271 NIL_271    0.032
3866 H0RO 29.801 15.047 -4.891 h1 271 NIL_271    0.050
3867 H0RP 31.477 14.561 -5.143 h1 271 NIL_271    0.050
3868 C0NG 24.351 20.621 19.561 c3 272 NIL_272    0.034
3869 C0NH 23.223 21.548 19.068 c3 272 NIL_272    0.040
3870 N05S 25.308 20.484 18.457 n 272 NIL_272   -0.286
3871 C0NI 23.923 22.372 17.976 c3 272 NIL_272   -0.005
3872 N05T 22.116 20.765 18.504 n 272 NIL_272   -0.310
3873 C0NJ 24.902 21.362 17.358 c3 272 NIL_272    0.104
3874 C0NK 26.073 21.966 16.606 c 272 NIL_272    0.510
3875 O05I 26.000 23.019 16.005 o 272 NIL_272   -0.552
3876 H0T0 24.364 20.743 16.634 h1 272 NIL_272    0.061
3877 H0T1 23.226 22.778 17.238 hc 272 NIL_272    0.031
3878 H0T2 24.474 23.197 18.436 hc 272 NIL_272    0.031
3879 H0T3 22.857 22.185 19.879 h1 272 NIL_272    0.052
3880 H0T4 24.865 21.086 20.407 h1 272 NIL_272    0.049
3881 H0T5 23.964 19.643 19.861 h1 272 NIL_272    0.049
3882 H0T6 22.351 19.859 18.127 hn 272 NIL_272    0.150
3883 C0KJ 23.217 8.597 13.161 c 273 NIL_273    0.510
3884 C0KK 24.433 8.236 13.995 c3 273 NIL_273    0.092
3885 O04O 22.164 8.993 13.623 o 273 NIL_273   -0.557
3886 H0Q0 24.571 7.154 13.933 h1 273 NIL_273    0.057
3887 H0Q1 25.296 8.680 13.492 h1 273 NIL_273    0.057
3888 C0L2 20.865 10.042 0.086 c3 274 NIL_274    0.007
3889 C0L3 20.110 9.249 -0.989 c3 274 NIL_274    0.105
3890 C0L4 21.956 9.041 0.574 c3 274 NIL_274    0.131
3891 N053 21.168 8.557 -1.694 n 274 NIL_274   -0.285
3892 C0L5 19.155 10.065 -1.826 c 274 NIL_274    0.510
3893 C0L6 22.043 8.034 -0.632 c3 274 NIL_274    0.046
3894 C0L7 21.299 8.346 1.781 c 274 NIL_274    0.510
3895 N054 23.243 9.757 0.929 n 274 NIL_274   -0.284
3896 O04U 18.181 10.565 -1.295 o 274 NIL_274   -0.549
3897 O04V 20.511 7.424 1.676 o 274 NIL_274   -0.544
3898 H0QJ 23.050 7.871 -1.002 h1 274 NIL_274    0.050
3899 H0QK 21.671 7.046 -0.352 h1 274 NIL_274    0.050
3900 H0QL 19.489 8.493 -0.502 h1 274 NIL_274    0.061
3901 H0QM 21.303 10.941 -0.352 hc 274 NIL_274    0.032
3902 H0QN 20.197 10.364 0.889 hc 274 NIL_274    0.032
3903 C0LE 29.856 13.970 -7.434 c 275 NIL_275    0.510
3904 C0LF 29.472 12.976 -8.542 c3 275 NIL_275    0.131
3905 O04Y 30.056 15.154 -7.635 o 275 NIL_275   -0.544
3906 C0LG 30.827 12.592 -9.206 c3 275 NIL_275    0.007
3907 C0LH 28.717 13.719 -9.689 c3 275 NIL_275    0.046
3908 N057 28.747 11.751 -8.027 n 275 NIL_275   -0.284
3909 C0LI 30.808 13.260 -10.589 c3 275 NIL_275    0.105
3910 N058 29.401 13.335 -10.925 n 275 NIL_275   -0.285
3911 C0LJ 31.706 12.565 -11.585 c 275 NIL_275    0.510
3912 O04Z 32.873 12.374 -11.299 o 275 NIL_275   -0.549
3913 H0QU 31.176 14.287 -10.501 h1 275 NIL_275    0.061
3914 H0QV 27.647 13.513 -9.711 h1 275 NIL_275    0.050
3915 H0QW 28.817 14.804 -9.605 h1 275 NIL_275    0.050
3916 H0QX 30.926 11.512 -9.303 hc 275 NIL_275    0.032
3917 H0QY 31.694 12.932 -8.634 hc 275 NIL_275    0.032
3918 C0PN 17.826 22.599 15.353 c3 276 NIL_276   -0.052
3919 C0PO 19.020 22.120 16.205 c3 276 NIL_276   -0.004
3920 H0W8 19.929 22.143 15.597 h1 276 NIL_276    0.043
3921 H0W9 19.132 22.839 17.017 h1 276 NIL_276    0.043
3922 H0WA 16.920 22.652 15.961 hc 276 NIL_276    0.024
3923 H0WB 17.640 21.935 14.506 hc 276 NIL_276    0.024
3924 H0WC 18.030 23.597 14.959 hc 276 NIL_276    0.024
3925 C0L8 27.379 19.942 17.276 c3 277 NIL_277    0.129
3926 C0L9 27.091 18.834 16.246 c3 277 NIL_277    0.006
3927 C0LA 28.858 19.669 17.652 c3 277 NIL_277    0.045
3928 N055 27.231 21.272 16.653 n 277 NIL_277   -0.298
3929 C0LB 26.438 19.739 18.468 c 277 NIL_277    0.510
3930 C0LC 27.982 17.671 16.696 c3 277 NIL_277    0.105
3931 N056 29.182 18.296 17.234 n 277 NIL_277   -0.285
3932 H0QO 28.042 21.652 16.188 hn 277 NIL_277    0.151
3933 O04W 26.683 18.978 19.386 o 277 NIL_277   -0.545
3934 C0LD 28.230 16.648 15.613 c 277 NIL_277    0.510
3935 O04X 27.336 16.329 14.852 o 277 NIL_277   -0.549
3936 H0QP 27.497 17.137 17.518 h1 277 NIL_277    0.061
3937 H0QQ 29.516 20.354 17.109 h1 277 NIL_277    0.050
3938 H0QR 29.029 19.788 18.725 h1 277 NIL_277    0.050
3939 H0QS 27.398 19.161 15.248 hc 277 NIL_277    0.032
3940 H0QT 26.035 18.555 16.207 hc 277 NIL_277    0.032
3941 O052 31.330 18.310 17.808 o 278 NIL_278   -0.545
3942 C0LT 30.413 17.740 17.246 c 278 NIL_278    0.510
3943 C0LU 30.599 16.415 16.485 c3 278 NIL_278    0.128
3944 C0LV 30.723 15.273 17.516 c3 278 NIL_278    0.003
3945 C0LW 32.024 16.416 15.857 c3 278 NIL_278    0.029
3946 N05B 29.483 16.124 15.517 n 278 NIL_278   -0.275
3947 C0LX 32.186 15.284 18.023 c3 278 NIL_278    0.090
3948 N05C 32.948 15.909 16.899 n3 278 NIL_278   -0.290
3949 C0LY 32.646 13.957 18.640 c 278 NIL_278    0.510
3950 O053 33.815 13.670 18.816 o 278 NIL_278   -0.557
3951 H0RB 32.219 15.992 18.857 h1 278 NIL_278    0.057
3952 H0RC 32.088 15.756 14.998 h1 278 NIL_278    0.046
3953 H0RD 32.319 17.417 15.528 h1 278 NIL_278    0.046
3954 H0RE 30.526 14.321 17.020 hc 278 NIL_278    0.032
3955 H0RF 30.003 15.378 18.332 hc 278 NIL_278    0.032
3956 C0KQ 23.529 19.329 -3.604 c3 279 NIL_279    0.131
3957 C0KR 24.915 19.044 -4.268 c3 279 NIL_279    0.007
3958 C0KS 22.544 18.982 -4.758 c3 279 NIL_279    0.046
3959 N04Z 23.358 20.766 -3.152 n 279 NIL_279   -0.284
3960 C0KT 23.241 18.293 -2.500 c 279 NIL_279    0.510
3961 C0KU 24.680 19.271 -5.775 c3 279 NIL_279    0.105
3962 N050 23.300 18.891 -6.015 n 279 NIL_279   -0.285
3963 O04Q 23.559 17.122 -2.606 o 279 NIL_279   -0.544
3964 C0KV 25.669 18.631 -6.721 c 279 NIL_279    0.510
3965 O04R 26.806 18.382 -6.362 o 279 NIL_279   -0.549
3966 H0Q9 24.753 20.332 -6.013 h1 279 NIL_279    0.061
3967 H0QA 22.066 18.012 -4.591 h1 279 NIL_279    0.050
3968 H0QB 21.759 19.738 -4.843 h1 279 NIL_279    0.050
3969 H0QC 25.218 18.003 -4.136 hc 279 NIL_279    0.032
3970 H0QD 25.720 19.664 -3.869 hc 279 NIL_279    0.032
3971 N05Y 17.635 13.378 17.143 n 280 NIL_280   -0.298
3972 C0NX 18.758 13.991 17.883 c3 280 NIL_280    0.129
3973 H0TH 16.974 14.007 16.712 hn 280 NIL_280    0.151
3974 C0NY 19.934 14.236 16.903 c3 280 NIL_280    0.006
3975 C0NZ 18.337 15.412 18.340 c3 280 NIL_280    0.045
3976 C0O0 19.242 13.102 19.037 c 280 NIL_280    0.510
3977 C0O1 20.116 15.760 16.804 c3 280 NIL_280    0.105
3978 N05Z 18.926 16.363 17.394 n 280 NIL_280   -0.285
3979 O05N 19.771 13.542 20.040 o 280 NIL_280   -0.545
3980 C0O2 20.404 16.270 15.402 c 280 NIL_280    0.510
3981 O05O 21.012 15.592 14.594 o 280 NIL_280   -0.549
3982 H0TI 20.970 16.052 17.422 h1 280 NIL_280    0.061
3983 H0TJ 17.248 15.515 18.363 h1 280 NIL_280    0.050
3984 H0TK 18.735 15.644 19.331 h1 280 NIL_280    0.050
3985 H0TL 19.703 13.810 15.922 hc 280 NIL_280    0.032
3986 H0TM 20.862 13.772 17.248 hc 280 NIL_280    0.032
3987 C0MB 34.249 15.371 16.418 c3 281 NIL_281   -0.004
3988 C0MC 34.124 14.054 15.619 c3 281 NIL_281   -0.052
3989 H0RQ 35.118 13.690 15.355 hc 281 NIL_281    0.024
3990 H0RR 33.568 14.201 14.691 hc 281 NIL_281    0.024
3991 H0RS 33.627 13.275 16.197 hc 281 NIL_281    0.024
3992 H0RT 34.922 15.226 17.264 h1 281 NIL_281    0.043
3993 H0RU 34.711 16.120 15.770 h1 281 NIL_281    0.043
3994 C0PL 21.902 4.798 17.373 c3 282 NIL_282   -0.004
3995 C0PM 21.812 3.681 16.315 c3 282 NIL_282   -0.052
3996 H0W3 21.750 2.707 16.805 hc 282 NIL_282    0.024
3997 H0W4 22.689 3.677 15.664 hc 282 NIL_282    0.024
3998 H0W5 20.920 3.811 15.699 hc 282 NIL_282    0.024
3999 H0W6 21.021 4.729 18.016 h1 282 NIL_282    0.043
4000 H0W7 22.790 4.642 17.993 h1 282 NIL_282    0.043
4001 C0PB 18.488 11.164 17.666 c3 283 NIL_283    0.104
4002 N06A 19.032 11.773 18.881 n 283 NIL_283   -0.286
4003 C0PC 17.971 9.782 18.088 c3 283 NIL_283   -0.005
4004 C0PD 17.482 12.049 16.956 c 283 NIL_283    0.510
4005 C0PE 19.227 10.729 19.898 c3 283 NIL_283    0.034
4006 C0PF 18.945 9.378 19.208 c3 283 NIL_283    0.040
4007 O05X 16.577 11.611 16.275 o 283 NIL_283   -0.552
4008 N06B 20.198 8.820 18.681 n 283 NIL_283   -0.310
4009 H0VN 18.493 8.663 19.900 h1 283 NIL_283    0.052
4010 H0VO 18.505 10.889 20.704 h1 283 NIL_283    0.049
4011 H0VP 20.243 10.768 20.304 h1 283 NIL_283    0.049
4012 H0VQ 17.954 9.076 17.255 hc 283 NIL_283    0.031
4013 H0VR 16.961 9.867 18.500 hc 283 NIL_283    0.031
4014 H0VS 19.323 11.034 16.971 h1 283 NIL_283    0.061
4015 H0VT 21.022 9.391 18.794 hn 283 NIL_283    0.150
4016 H0TZ 28.288 8.184 16.851 hn 284 NIL_284    0.151
4017 N064 28.617 8.985 17.369 n 284 NIL_284   -0.298
4018 C0OD 27.688 9.569 18.361 c3 284 NIL_284    0.129
4019 C0OE 26.774 10.604 17.666 c3 284 NIL_284    0.006
4020 C0OF 26.696 8.480 18.827 c3 284 NIL_284    0.045
4021 C0OG 28.423 10.242 19.524 c 284 NIL_284    0.510
4022 C0OH 25.486 9.847 17.283 c3 284 NIL_284    0.105
4023 N065 25.569 8.522 17.894 n 284 NIL_284   -0.285
4024 O05S 27.943 10.355 20.636 o 284 NIL_284   -0.545
4025 C0OI 25.168 9.749 15.797 c 284 NIL_284    0.510
4026 O05T 25.603 10.554 14.995 o 284 NIL_284   -0.549
4027 H0U0 24.639 10.372 17.732 h1 284 NIL_284    0.061
4028 H0U1 27.167 7.492 18.827 h1 284 NIL_284    0.050
4029 H0U2 26.308 8.696 19.825 h1 284 NIL_284    0.050
4030 H0U3 27.269 11.076 16.815 hc 284 NIL_284    0.032
4031 H0U4 26.506 11.400 18.366 hc 284 NIL_284    0.032
4032 C0JI 25.019 11.154 -2.268 c3 285 NIL_285   -0.064
4033 C0JJ 23.881 10.979 -1.244 c3 285 NIL_285   -0.040
4034 C0JK 24.262 9.958 -0.149 c3 285 NIL_285    0.015
4035 H0OR 24.536 9.008 -0.603 h1 285 NIL_285    0.047
4036 H0OS 25.191 10.316 0.300 h1 285 NIL_285    0.047
4037 H0OT 23.637 11.941 -0.790 hc 285 NIL_285    0.028
4038 H0OU 22.994 10.653 -1.777 hc 285 NIL_285    0.028
4039 H0OV 25.924 11.533 -1.793 hc 285 NIL_285    0.023
4040 H0OW 24.722 11.860 -3.046 hc 285 NIL_285    0.023
4041 H0OX 25.257 10.199 -2.742 hc 285 NIL_285    0.023
4042 C0OS 22.329 17.941 -0.170 c3 286 NIL_286    0.046
4043 C0OT 22.748 18.873 1.013 c3 286 NIL_286    0.131
4044 N066 22.577 18.706 -1.396 n 286 NIL_286   -0.285
4045 C0OU 22.689 20.285 0.361 c3 286 NIL_286    0.007
4046 C0OV 21.659 18.857 2.102 c 286 NIL_286    0.510
4047 N067 24.136 18.590 1.543 n 286 NIL_286   -0.284
4048 C0OW 22.197 20.067 -1.082 c3 286 NIL_286    0.105
4049 O05U 20.475 18.751 1.844 o 286 NIL_286   -0.544
4050 C0OX 22.685 21.137 -2.026 c 286 NIL_286    0.510
4051 O05V 22.469 22.304 -1.754 o 286 NIL_286   -0.549
4052 H0UQ 21.104 20.113 -1.105 h1 286 NIL_286    0.061
4053 H0UR 23.675 20.754 0.359 hc 286 NIL_286    0.032
4054 H0US 22.015 20.966 0.887 hc 286 NIL_286    0.032
4055 H0UT 22.838 16.977 -0.158 h1 286 NIL_286    0.050
4056 H0UU 21.258 17.730 -0.149 h1 286 NIL_286    0.050
4057 O058 20.488 22.257 18.870 o 287 NIL_287   -0.557
4058 C0MD 20.838 21.196 18.391 c 287 NIL_287    0.510
4059 C0ME 19.864 20.238 17.699 c3 287 NIL_287    0.090
4060 N05H 18.825 20.748 16.754 n3 287 NIL_287   -0.290
4061 C0MF 20.527 19.077 16.931 c3 287 NIL_287    0.003
4062 C0MG 18.650 19.720 15.686 c3 287 NIL_287    0.029
4063 C0MH 19.371 18.422 16.148 c3 287 NIL_287    0.128
4064 N05I 19.914 17.503 15.088 n 287 NIL_287   -0.275
4065 C0MI 18.517 17.631 17.153 c 287 NIL_287    0.510
4066 O059 17.524 18.082 17.692 o 287 NIL_287   -0.545
4067 H0RV 19.141 20.110 14.792 h1 287 NIL_287    0.046
4068 H0RW 17.594 19.546 15.465 h1 287 NIL_287    0.046
4069 H0RX 21.272 19.474 16.237 hc 287 NIL_287    0.032
4070 H0RY 21.024 18.377 17.607 hc 287 NIL_287    0.032
4071 H0RZ 19.324 19.784 18.534 h1 287 NIL_287    0.057
4072 C0NL 30.585 15.076 4.354 c3 288 NIL_288    0.046
4073 C0NM 30.084 14.241 5.565 c3 288 NIL_288    0.131
4074 N05U 30.147 14.413 3.124 n 288 NIL_288   -0.285
4075 C0NN 29.351 13.026 4.917 c3 288 NIL_288    0.007
4076 N05V 31.208 13.794 6.458 n 288 NIL_288   -0.284
4077 C0NO 29.020 15.099 6.261 c 288 NIL_288    0.510
4078 C0NP 29.747 13.047 3.429 c3 288 NIL_288    0.105
4079 O05J 28.037 15.516 5.677 o 288 NIL_288   -0.547
4080 C0NQ 28.703 12.496 2.484 c 288 NIL_288    0.510
4081 O05K 27.958 11.598 2.831 o 288 NIL_288   -0.549
4082 H0T7 30.624 12.414 3.276 h1 288 NIL_288    0.061
4083 H0T8 28.266 13.125 5.002 hc 288 NIL_288    0.032
4084 H0T9 29.619 12.073 5.380 hc 288 NIL_288    0.032
4085 H0TA 30.187 16.094 4.377 h1 288 NIL_288    0.050
4086 H0TB 31.670 15.142 4.344 h1 288 NIL_288    0.050
4087 C0LN 23.548 18.605 5.203 c3 289 NIL_289    0.007
4088 C0LO 23.424 19.251 3.810 c3 289 NIL_289    0.105
4089 C0LP 22.125 18.711 5.825 c3 289 NIL_289    0.131
4090 N059 22.061 18.985 3.387 n 289 NIL_289   -0.285
4091 C0LQ 24.499 18.823 2.837 c 289 NIL_289    0.510
4092 C0LR 21.204 18.894 4.581 c3 289 NIL_289    0.046
4093 N05A 21.994 19.849 6.808 n 289 NIL_289   -0.284
4094 C0LS 21.760 17.336 6.404 c 289 NIL_289    0.510
4095 O050 25.646 18.693 3.223 o 289 NIL_289   -0.549
4096 O051 21.783 16.318 5.737 o 289 NIL_289   -0.547
4097 H0R6 20.524 18.045 4.458 h1 289 NIL_289    0.050
4098 H0R7 20.586 19.787 4.673 h1 289 NIL_289    0.050
4099 H0R8 23.524 20.335 3.885 h1 289 NIL_289    0.061
4100 H0R9 23.842 17.561 5.068 hc 289 NIL_289    0.032
4101 H0RA 24.321 19.074 5.816 hc 289 NIL_289    0.032
4102 C0PV 24.839 13.092 -7.753 c3 290 NIL_290   -0.064
4103 C0PW 24.065 12.898 -9.072 c3 290 NIL_290   -0.040
4104 C0PX 22.523 12.760 -8.917 c3 290 NIL_290    0.015
4105 H0WR 22.123 13.734 -8.622 h1 290 NIL_290    0.047
4106 H0WS 22.114 12.559 -9.909 h1 290 NIL_290    0.047
4107 H0WT 24.260 13.762 -9.711 hc 290 NIL_290    0.028
4108 H0WU 24.481 12.043 -9.602 hc 290 NIL_290    0.028
4109 H0WV 25.908 13.170 -7.965 hc 290 NIL_290    0.023
4110 H0WW 24.693 12.243 -7.081 hc 290 NIL_290    0.023
4111 H0WX 24.523 14.005 -7.245 hc 290 NIL_290    0.023
4112 C0KL 30.287 10.663 17.925 c3 291 NIL_291    0.104
4113 N04X 29.667 10.697 19.250 n 291 NIL_291   -0.286
4114 C0KM 31.798 10.797 18.175 c3 291 NIL_291   -0.005
4115 C0KN 29.847 9.475 17.092 c 291 NIL_291    0.510
4116 C0KO 30.633 11.223 20.223 c3 291 NIL_291    0.034
4117 C0KP 31.848 11.710 19.413 c3 291 NIL_291    0.040
4118 O04P 30.546 8.967 16.239 o 291 NIL_291   -0.552
4119 N04Y 31.663 13.115 19.024 n 291 NIL_291   -0.310
4120 H0Q2 32.780 11.592 19.975 h1 291 NIL_291    0.052
4121 H0Q3 30.936 10.408 20.885 h1 291 NIL_291    0.049
4122 H0Q4 30.192 12.032 20.813 h1 291 NIL_291    0.049
4123 H0Q5 32.330 11.216 17.315 hc 291 NIL_291    0.031
4124 H0Q6 32.230 9.824 18.420 hc 291 NIL_291    0.031
4125 H0Q7 29.940 11.551 17.387 h1 291 NIL_291    0.061
4126 H0Q8 30.709 13.421 18.902 hn 291 NIL_291    0.150
4127 O054 24.829 6.429 18.159 o 292 NIL_292   -0.545
4128 C0LZ 24.747 7.496 17.579 c 292 NIL_292    0.510
4129 C0M0 23.767 7.770 16.425 c3 292 NIL_292    0.128
4130 C0M1 22.510 8.428 17.032 c3 292 NIL_292    0.003
4131 C0M2 23.143 6.435 15.913 c3 292 NIL_292    0.029
4132 N05D 24.408 8.680 15.412 n 292 NIL_292   -0.275
4133 C0M3 21.769 7.263 17.709 c3 292 NIL_292    0.090
4134 N05E 21.952 6.147 16.757 n3 292 NIL_292   -0.290
4135 C0M4 20.340 7.610 18.096 c 292 NIL_292    0.510
4136 O055 19.400 6.863 17.902 o 292 NIL_292   -0.557
4137 H0RG 22.289 7.029 18.643 h1 292 NIL_292    0.057
4138 H0RH 22.770 6.536 14.893 h1 292 NIL_292    0.046
4139 H0RI 23.876 5.624 15.937 h1 292 NIL_292    0.046
4140 H0RJ 21.884 8.857 16.246 hc 292 NIL_292    0.032
4141 H0RK 22.751 9.217 17.747 hc 292 NIL_292    0.032
4142 C0LK 20.345 22.510 6.444 c3 293 NIL_293   -0.064
4143 C0LL 21.607 22.146 5.641 c3 293 NIL_293   -0.040
4144 C0LM 22.549 21.176 6.393 c3 293 NIL_293    0.015
4145 H0QZ 23.446 21.047 5.793 h1 293 NIL_293    0.047
4146 H0R0 22.900 21.695 7.289 h1 293 NIL_293    0.047
4147 H0R1 21.330 21.741 4.668 hc 293 NIL_293    0.028
4148 H0R2 22.161 23.065 5.438 hc 293 NIL_293    0.028
4149 H0R3 19.732 21.626 6.629 hc 293 NIL_293    0.023
4150 H0R4 19.746 23.235 5.890 hc 293 NIL_293    0.023
4151 H0R5 20.614 22.959 7.404 hc 293 NIL_293    0.023
4152 C0OM 19.049 10.981 6.077 c3 294 NIL_294   -0.040
4153 C0ON 20.593 10.973 6.032 c3 294 NIL_294    0.015
4154 C0OO 18.510 12.384 5.742 c3 294 NIL_294   -0.064
4155 H0UC 18.834 12.696 4.746 hc 294 NIL_294    0.023
4156 H0UD 18.871 13.117 6.468 hc 294 NIL_294    0.023
4157 H0UE 17.418 12.389 5.767 hc 294 NIL_294    0.023
4158 H0UF 20.885 11.221 5.014 h1 294 NIL_294    0.047
4159 H0UG 20.971 11.778 6.670 h1 294 NIL_294    0.047
4160 H0UH 18.698 10.694 7.071 hc 294 NIL_294    0.028
4161 H0UI 18.641 10.262 5.364 hc 294 NIL_294    0.028
4162 C0KW 22.633 7.653 5.917 c 295 NIL_295    0.510
4163 C0KX 21.935 8.919 5.412 c3 295 NIL_295    0.131
4164 O04S 23.235 6.903 5.172 o 295 NIL_295   -0.547
4165 C0KY 22.999 9.788 4.671 c3 295 NIL_295    0.007
4166 C0KZ 20.988 8.441 4.274 c3 295 NIL_295    0.046
4167 N051 21.219 9.697 6.479 n 295 NIL_295   -0.284
4168 C0L0 22.445 9.987 3.247 c3 295 NIL_295    0.105
4169 N052 21.599 8.838 3.001 n 295 NIL_295   -0.285
4170 C0L1 23.489 10.240 2.183 c 295 NIL_295    0.510
4171 O04T 24.506 10.844 2.464 o 295 NIL_295   -0.549
4172 H0QE 21.797 10.865 3.221 h1 295 NIL_295    0.061
4173 H0QF 20.839 7.357 4.299 h1 295 NIL_295    0.050
4174 H0QG 20.011 8.920 4.344 h1 295 NIL_295    0.050
4175 H0QH 23.961 9.272 4.615 hc 295 NIL_295    0.032
4176 H0QI 23.182 10.746 5.163 hc 295 NIL_295    0.032
4177 C0PG 17.235 12.871 -4.974 c3 296 NIL_296   -0.064
4178 C0PH 18.217 12.305 -3.931 c3 296 NIL_296   -0.040
4179 C0PI 18.310 10.762 -4.024 c3 296 NIL_296    0.015
4180 H0VU 17.348 10.338 -3.720 h1 296 NIL_296    0.047
4181 H0VV 18.438 10.490 -5.071 h1 296 NIL_296    0.047
4182 H0VW 19.195 12.760 -4.089 hc 296 NIL_296    0.028
4183 H0VX 17.888 12.600 -2.932 hc 296 NIL_296    0.028
4184 H0VY 16.235 12.452 -4.840 hc 296 NIL_296    0.023
4185 H0VZ 17.572 12.644 -5.989 hc 296 NIL_296    0.023
4186 H0W0 17.166 13.955 -4.872 hc 296 NIL_296    0.023
4187 C0O3 30.884 13.254 0.176 c3 297 NIL_297    0.007
4188 C0O4 31.283 14.013 -1.098 c3 297 NIL_297    0.105
4189 C0O5 29.670 14.043 0.747 c3 297 NIL_297    0.131
4190 N060 30.005 14.416 -1.637 n 297 NIL_297   -0.285
4191 C0O6 32.182 13.206 -2.002 c 297 NIL_297    0.510
4192 C0O7 29.254 14.923 -0.484 c3 297 NIL_297    0.046
4193 C0O8 30.218 14.929 1.876 c 297 NIL_297    0.510
4194 N061 28.629 13.076 1.253 n 297 NIL_297   -0.284
4195 O05P 33.288 12.897 -1.599 o 297 NIL_297   -0.549
4196 O05Q 30.698 16.031 1.690 o 297 NIL_297   -0.544
4197 H0TN 28.190 14.910 -0.686 h1 297 NIL_297    0.050
4198 H0TO 29.530 15.971 -0.349 h1 297 NIL_297    0.050
4199 H0TP 31.839 14.916 -0.830 h1 297 NIL_297    0.061
4200 H0TQ 30.586 12.236 -0.091 hc 297 NIL_297    0.032
4201 H0TR 31.719 13.191 0.880 hc 297 NIL_297    0.032
4202 C0PP 26.095 14.790 0.858 c3 298 NIL_298   -0.064
4203 C0PQ 26.166 13.256 0.778 c3 298 NIL_298   -0.040
4204 C0PR 27.534 12.677 0.337 c3 298 NIL_298    0.015
4205 H0WD 27.461 11.585 0.349 h1 298 NIL_298    0.047
4206 H0WE 27.743 12.944 -0.698 h1 298 NIL_298    0.047
4207 H0WF 25.911 12.857 1.760 hc 298 NIL_298    0.028
4208 H0WG 25.397 12.917 0.090 hc 298 NIL_298    0.028
4209 H0WH 26.161 15.232 -0.137 hc 298 NIL_298    0.023
4210 H0WI 26.894 15.189 1.486 hc 298 NIL_298    0.023
4211 H0WJ 25.140 15.092 1.295 hc 298 NIL_298    0.023
4212 C0NR 21.450 10.478 -8.570 c3 299 NIL_299    0.131
4213 C0NS 20.108 10.707 -9.336 c3 299 NIL_299    0.007
4214 C0NT 22.365 9.867 -9.677 c3 299 NIL_299    0.046
4215 N05W 22.013 11.736 -7.955 n 299 NIL_299   -0.284
4216 C0NU 21.110 9.386 -7.543 c 299 NIL_299    0.510
4217 C0NV 20.184 9.653 -10.452 c3 299 NIL_299    0.105
4218 N05X 21.558 9.771 -10.902 n 299 NIL_299   -0.285
4219 O05L 21.030 8.205 -7.830 o 299 NIL_299   -0.544
4220 C0NW 19.138 9.690 -11.544 c 299 NIL_299    0.510
4221 O05M 17.954 9.758 -11.281 o 299 NIL_299   -0.549
4222 H0TC 20.064 8.656 -10.019 h1 299 NIL_299    0.061
4223 H0TD 23.251 10.462 -9.855 h1 299 NIL_299    0.050
4224 H0TE 22.713 8.867 -9.408 h1 299 NIL_299    0.050
4225 H0TF 20.051 11.706 -9.774 hc 299 NIL_299    0.032
4226 H0TG 19.235 10.562 -8.694 hc 299 NIL_299    0.032
4227 N05M 19.376 10.162 -3.167 n 300 NIL_300   -0.284
4228 C0N0 20.649 9.710 -3.844 c3 300 NIL_300    0.131
4229 C0N1 21.461 10.949 -4.329 c3 300 NIL_300    0.007
4230 C0N2 20.426 8.923 -5.173 c3 300 NIL_300    0.046
4231 C0N3 21.555 8.828 -2.964 c 300 NIL_300    0.510
4232 C0N4 21.009 11.134 -5.787 c3 300 NIL_300    0.105
4233 N05N 20.870 9.782 -6.280 n 300 NIL_300   -0.285
4234 O05D 22.608 8.384 -3.385 o 300 NIL_300   -0.544
4235 C0N5 21.815 12.078 -6.648 c 300 NIL_300    0.510
4236 O05E 22.212 13.128 -6.179 o 300 NIL_300   -0.549
4237 H0SJ 20.018 11.574 -5.803 h1 300 NIL_300    0.061
4238 H0SK 21.004 7.994 -5.196 h1 300 NIL_300    0.050
4239 H0SL 19.377 8.656 -5.310 h1 300 NIL_300    0.050
4240 H0SM 22.536 10.750 -4.320 hc 300 NIL_300    0.032
4241 H0SN 21.288 11.834 -3.716 hc 300 NIL_300    0.032
4242 C0PJ 21.151 18.460 13.117 c 301 NIL_301    0.510
4243 C0PK 19.845 17.913 13.661 c3 301 NIL_301    0.092
4244 O05Y 22.052 18.866 13.826 o 301 NIL_301   -0.557
4245 H0W1 19.053 18.633 13.459 h1 301 NIL_301    0.057
4246 H0W2 19.604 17.030 13.062 h1 301 NIL_301    0.057
4247 C0O9 22.406 8.626 10.789 c3 302 NIL_302    0.013
4248 N062 23.415 8.427 11.835 n 302 NIL_302   -0.314
4249 C0OA 23.015 8.391 9.387 c3 302 NIL_302   -0.010
4250 C0OB 21.956 8.138 8.282 c3 302 NIL_302    0.101
4251 C0OC 21.284 9.421 7.815 c 302 NIL_302    0.510
4252 N063 22.553 7.332 7.220 n 302 NIL_302   -0.302
4253 O05R 20.795 10.176 8.634 o 302 NIL_302   -0.550
4254 H0TS 21.153 7.526 8.704 h1 302 NIL_302    0.061
4255 H0TT 23.658 9.231 9.110 hc 302 NIL_302    0.031
4256 H0TU 23.660 7.510 9.451 hc 302 NIL_302    0.031
4257 H0TV 22.008 9.641 10.862 h1 302 NIL_302    0.047
4258 H0TW 21.594 7.913 10.961 h1 302 NIL_302    0.047
4259 H0TX 22.991 6.473 7.517 hn 302 NIL_302    0.150
4260 H0TY 24.321 8.101 11.530 hn 302 NIL_302    0.149
4261 C0N6 23.635 20.074 -8.981 c3 303 NIL_303    0.007
4262 C0N7 22.857 19.893 -10.293 c3 303 NIL_303    0.105
4263 C0N8 23.792 18.636 -8.404 c3 303 NIL_303    0.131
4264 N05O 23.274 18.593 -10.770 n 303 NIL_303   -0.285
4265 C0N9 23.038 21.052 -11.235 c 303 NIL_303    0.510
4266 C0NA 23.287 17.735 -9.580 c3 303 NIL_303    0.046
4267 N05P 25.224 18.376 -7.988 n 303 NIL_303   -0.284
4268 C0NB 22.800 18.586 -7.231 c 303 NIL_303    0.510
4269 O05F 22.772 22.172 -10.839 o 303 NIL_303   -0.549
4270 O05G 21.615 18.340 -7.361 o 303 NIL_303   -0.544
4271 H0SO 23.868 16.826 -9.721 h1 303 NIL_303    0.050
4272 H0SP 22.255 17.413 -9.426 h1 303 NIL_303    0.050
4273 H0SQ 21.786 19.836 -10.077 h1 303 NIL_303    0.061
4274 H0SR 24.607 20.527 -9.182 hc 303 NIL_303    0.032
4275 H0SS 23.103 20.752 -8.308 hc 303 NIL_303    0.032
4276 C0PS 34.036 14.592 5.483 c3 304 NIL_304   -0.064
4277 C0PT 33.677 13.174 5.962 c3 304 NIL_304   -0.040
4278 C0PU 32.169 12.834 5.839 c3 304 NIL_304    0.015
4279 H0WK 31.969 12.738 4.775 h1 304 NIL_304    0.047
4280 H0WL 32.003 11.851 6.290 h1 304 NIL_304    0.047
4281 H0WM 34.240 12.454 5.362 hc 304 NIL_304    0.028
4282 H0WN 34.017 13.047 6.991 hc 304 NIL_304    0.028
4283 H0WO 33.528 15.346 6.089 hc 304 NIL_304    0.023
4284 H0WP 33.761 14.726 4.436 hc 304 NIL_304    0.023
4285 H0WQ 35.112 14.756 5.567 hc 304 NIL_304    0.023
4286 C0P2 23.938 21.850 -4.000 c3 305 NIL_305    0.015
4287 C0P3 22.973 22.379 -5.085 c3 305 NIL_305   -0.040
4288 C0P4 23.629 23.510 -5.895 c3 305 NIL_305   -0.064
4289 H0V2 22.922 23.906 -6.628 hc 305 NIL_305    0.023
4290 H0V3 24.507 23.138 -6.428 hc 305 NIL_305    0.023
4291 H0V4 23.939 24.328 -5.240 hc 305 NIL_305    0.023
4292 H0V5 22.060 22.752 -4.613 hc 305 NIL_305    0.028
4293 H0V6 22.683 21.584 -5.772 hc 305 NIL_305    0.028
4294 H0V7 24.883 21.555 -4.449 h1 305 NIL_305    0.047
4295 H0V8 24.203 22.692 -3.352 h1 305 NIL_305    0.047
4296 N068 21.247 18.429 11.770 n 306 NIL_306   -0.314
4297 C0OY 22.457 18.780 11.018 c3 306 NIL_306    0.013
4298 C0OZ 22.559 18.013 9.681 c3 306 NIL_306   -0.010
4299 C0P0 21.413 18.308 8.678 c3 306 NIL_306    0.101
4300 C0P1 21.566 19.702 8.096 c 306 NIL_306    0.510
4301 N069 21.373 17.242 7.687 n 306 NIL_306   -0.302
4302 O05W 21.323 20.667 8.798 o 306 NIL_306   -0.550
4303 H0UV 20.453 18.291 9.202 h1 306 NIL_306    0.061
4304 H0UW 23.518 18.243 9.209 hc 306 NIL_306    0.031
4305 H0UX 22.573 16.943 9.911 hc 306 NIL_306    0.031
4306 H0UY 23.331 18.524 11.622 h1 306 NIL_306    0.047
4307 H0UZ 22.472 19.858 10.843 h1 306 NIL_306    0.047
4308 H0V0 21.113 16.330 8.031 hn 306 NIL_306    0.150
4309 H0V1 20.460 18.091 11.237 hn 306 NIL_306    0.149
4310 C0P5 26.194 17.911 -9.030 c3 307 NIL_307    0.015
4311 C0P6 26.788 19.010 -9.945 c3 307 NIL_307   -0.040
4312 C0P7 27.591 20.061 -9.155 c3 307 NIL_307   -0.064
4313 H0V9 28.064 20.766 -9.843 hc 307 NIL_307    0.023
4314 H0VA 28.375 19.581 -8.565 hc 307 NIL_307    0.023
4315 H0VB 26.944 20.624 -8.479 hc 307 NIL_307    0.023
4316 H0VC 26.009 19.497 -10.532 hc 307 NIL_307    0.028
4317 H0VD 27.454 18.533 -10.666 hc 307 NIL_307    0.028
4318 H0VE 25.764 17.139 -9.663 h1 307 NIL_307    0.047
4319 H0VF 27.033 17.422 -8.532 h1 307 NIL_307    0.047
4320 O05A 29.782 13.252 -17.753 o 308 NIL_308   -0.535
4321 C0MJ 29.561 13.866 -16.724 c 308 NIL_308    0.510
4322 C0MK 29.256 15.267 -16.876 c2 308 NIL_308    0.037
4323 C0ML 28.807 15.700 -18.067 c2 308 NIL_308   -0.049
4324 C0MM 29.319 16.177 -15.885 c2 308 NIL_308   -0.049
4325 C0MN 28.407 16.958 -18.249 c2 308 NIL_308   -0.057
4326 C0MO 28.921 17.437 -16.070 c2 308 NIL_308   -0.057
4327 C0MP 28.445 17.839 -17.247 c2 308 NIL_308   -0.031
4328 C0MQ 27.908 19.245 -17.442 c3 308 NIL_308    0.036
4329 N05J 26.819 19.624 -16.531 n 308 NIL_308   -0.310
4330 C0MR 25.730 18.873 -16.244 c 308 NIL_308    0.510
4331 C0MS 24.723 19.563 -15.334 c3 308 NIL_308    0.105
4332 O05B 25.582 17.738 -16.659 o 308 NIL_308   -0.553
4333 N05K 23.337 19.062 -15.431 n 308 NIL_308   -0.283
4334 C0MT 25.153 19.416 -13.858 c3 308 NIL_308    0.007
4335 C0MU 22.791 18.951 -14.072 c3 308 NIL_308    0.046
4336 C0MV 23.833 19.439 -13.033 c3 308 NIL_308    0.131
4337 N05L 23.493 20.814 -12.499 n 308 NIL_308   -0.284
4338 C0MW 23.856 18.333 -11.959 c 308 NIL_308    0.510
4339 C0MX 23.709 21.987 -13.404 c3 308 NIL_308    0.015
4340 O05C 24.338 17.233 -12.167 o 308 NIL_308   -0.544
4341 C0MY 22.550 22.344 -14.364 c3 308 NIL_308   -0.040
4342 C0MZ 21.200 22.558 -13.651 c3 308 NIL_308   -0.064
4343 H0S0 20.452 22.905 -14.362 hc 308 NIL_308    0.023
4344 H0S1 21.295 23.308 -12.863 hc 308 NIL_308    0.023
4345 H0S2 20.837 21.628 -13.208 hc 308 NIL_308    0.023
4346 H0S3 22.433 21.580 -15.131 hc 308 NIL_308    0.028
4347 H0S4 22.815 23.266 -14.886 hc 308 NIL_308    0.028
4348 H0S5 24.619 21.874 -13.986 h1 308 NIL_308    0.047
4349 H0S6 23.900 22.871 -12.791 h1 308 NIL_308    0.047
4350 H0S7 22.541 17.901 -13.895 h1 308 NIL_308    0.050
4351 H0S8 21.877 19.545 -13.989 h1 308 NIL_308    0.050
4352 H0S9 25.672 18.460 -13.751 hc 308 NIL_308    0.032
4353 H0SA 25.867 20.184 -13.551 hc 308 NIL_308    0.032
4354 H0SB 24.709 20.617 -15.619 h1 308 NIL_308    0.061
4355 H0SC 28.720 19.965 -17.316 h1 308 NIL_308    0.052
4356 H0SD 27.526 19.353 -18.461 h1 308 NIL_308    0.052
4357 H0SE 28.963 18.132 -15.234 ha 308 NIL_308    0.063
4358 H0SF 28.020 17.254 -19.219 ha 308 NIL_308    0.063
4359 H0SG 29.692 15.945 -14.901 ha 308 NIL_308    0.063
4360 H0SH 28.715 15.024 -18.914 ha 308 NIL_308    0.063
4361 H0SI 26.865 20.552 -16.138 hn 308 NIL_308    0.150
4362 C0OJ 29.444 8.887 -9.057 c3 309 NIL_309   -0.064
4363 C0OK 28.705 9.959 -9.881 c3 309 NIL_309   -0.040
4364 C0OL 27.924 10.957 -8.992 c3 309 NIL_309    0.015
4365 H0U5 27.331 11.598 -9.638 h1 309 NIL_309    0.047
4366 H0U6 27.186 10.379 -8.430 h1 309 NIL_309    0.047
4367 H0U7 29.409 10.481 -10.530 hc 309 NIL_309    0.028
4368 H0U8 27.995 9.463 -10.545 hc 309 NIL_309    0.028
4369 H0U9 29.904 8.154 -9.723 hc 309 NIL_309    0.023
4370 H0UA 28.748 8.360 -8.400 hc 309 NIL_309    0.023
4371 H0UB 30.229 9.333 -8.442 hc 309 NIL_309    0.023
4372 C0NC 29.898 14.797 9.836 c3 310 NIL_310   -0.010
4373 C0ND 30.339 15.105 8.383 c3 310 NIL_310    0.101
4374 C0NE 30.993 15.152 10.865 c3 310 NIL_310    0.013
4375 C0NF 31.263 14.044 7.797 c 310 NIL_310    0.510
4376 N05Q 29.176 15.415 7.557 n 310 NIL_310   -0.302
4377 N05R 30.578 14.827 12.232 n 310 NIL_310   -0.314
4378 O05H 32.036 13.435 8.513 o 310 NIL_310   -0.550
4379 H0ST 31.910 14.597 10.658 h1 310 NIL_310    0.047
4380 H0SU 31.220 16.218 10.793 h1 310 NIL_310    0.047
4381 H0SV 30.931 16.023 8.399 h1 310 NIL_310    0.061
4382 H0SW 29.621 13.744 9.924 hc 310 NIL_310    0.031
4383 H0SX 29.006 15.383 10.080 hc 310 NIL_310    0.031
4384 H0SY 30.584 13.853 12.492 hn 310 NIL_310    0.149
4385 H0SZ 28.459 15.974 7.993 hn 310 NIL_310    0.150
4386 C0OP 33.517 12.662 -5.079 c3 311 NIL_311   -0.040
4387 C0OQ 32.593 11.949 -4.066 c3 311 NIL_311    0.015
4388 C0OR 34.449 11.652 -5.774 c3 311 NIL_311   -0.064
4389 H0UJ 35.052 11.109 -5.041 hc 311 NIL_311    0.023
4390 H0UK 35.127 12.169 -6.456 hc 311 NIL_311    0.023
4391 H0UL 33.869 10.928 -6.350 hc 311 NIL_311    0.023
4392 H0UM 32.005 11.191 -4.577 h1 311 NIL_311    0.047
4393 H0UN 33.237 11.372 -3.395 h1 311 NIL_311    0.047
4394 H0UO 34.119 13.412 -4.561 hc 311 NIL_311    0.028
4395 H0UP 32.935 13.171 -5.847 hc 311 NIL_311    0.028
4396 C0K2 21.755 17.672 -16.756 c2 312 NIL_312    0.037
4397 C0K3 22.748 18.693 -16.607 c 312 NIL_312    0.510
4398 C0K4 20.790 17.419 -15.857 c2 312 NIL_312   -0.049
4399 C0K5 21.831 16.878 -17.834 c2 312 NIL_312   -0.049
4400 O04L 23.161 19.195 -17.639 o 312 NIL_312   -0.535
4401 C0K6 19.949 16.395 -16.026 c2 312 NIL_312   -0.057
4402 C0K7 20.995 15.855 -17.995 c2 312 NIL_312   -0.057
4403 C0K8 20.051 15.594 -17.088 c2 312 NIL_312   -0.031
4404 C0K9 19.129 14.405 -17.271 c3 312 NIL_312    0.036
4405 N04U 19.331 13.274 -16.356 n 312 NIL_312   -0.310
4406 C0KA 20.509 12.651 -16.113 c 312 NIL_312    0.510
4407 C0KB 20.367 11.341 -15.348 c3 312 NIL_312    0.105
4408 O04M 21.583 13.097 -16.472 o 312 NIL_312   -0.553
4409 N04V 21.340 10.277 -15.678 n 312 NIL_312   -0.283
4410 C0KC 20.508 11.574 -13.832 c3 312 NIL_312    0.007
4411 C0KD 21.629 9.542 -14.436 c3 312 NIL_312    0.046
4412 C0KE 20.873 10.191 -13.243 c3 312 NIL_312    0.131
4413 N04W 19.601 9.526 -12.813 n 312 NIL_312   -0.284
4414 C0KF 21.889 10.324 -12.094 c 312 NIL_312    0.510
4415 C0KG 18.708 8.976 -13.863 c3 312 NIL_312    0.015
4416 O04N 22.961 10.880 -12.238 o 312 NIL_312   -0.544
4417 C0KH 18.295 7.509 -13.605 c3 312 NIL_312   -0.040
4418 C0KI 19.488 6.535 -13.611 c3 312 NIL_312   -0.064
4419 H0PH 20.247 6.833 -12.885 hc 312 NIL_312    0.023
4420 H0PI 19.947 6.495 -14.600 hc 312 NIL_312    0.023
4421 H0PJ 19.148 5.531 -13.348 hc 312 NIL_312    0.023
4422 H0PK 17.584 7.205 -14.375 hc 312 NIL_312    0.028
4423 H0PL 17.775 7.434 -12.648 hc 312 NIL_312    0.028
4424 H0PM 19.182 9.004 -14.842 h1 312 NIL_312    0.047
4425 H0PN 17.812 9.602 -13.912 h1 312 NIL_312    0.047
4426 H0PO 22.700 9.617 -14.251 h1 312 NIL_312    0.050
4427 H0PP 21.359 8.488 -14.555 h1 312 NIL_312    0.050
4428 H0PQ 21.311 12.294 -13.649 hc 312 NIL_312    0.032
4429 H0PR 19.589 11.980 -13.403 hc 312 NIL_312    0.032
4430 H0PS 19.369 10.955 -15.568 h1 312 NIL_312    0.061
4431 H0PT 18.095 14.739 -17.161 h1 312 NIL_312    0.052
4432 H0PU 19.231 14.018 -18.289 h1 312 NIL_312    0.052
4433 H0PV 21.103 15.218 -18.869 ha 312 NIL_312    0.063
4434 H0PW 19.181 16.206 -15.279 ha 312 NIL_312    0.063
4435 H0PX 22.607 17.025 -18.582 ha 312 NIL_312    0.063
4436 H0PY 20.650 18.039 -14.982 ha 312 NIL_312    0.063
4437 H0PZ 18.491 12.852 -15.988 hn 312 NIL_312    0.150
4438 C0PY 29.760 15.112 14.469 c3 313 NIL_313    0.092
4439 C0PZ 30.169 15.729 13.147 c 313 NIL_313    0.510
4440 O05Z 30.130 16.925 12.923 o 313 NIL_313   -0.557
4441 H0WY 28.864 14.516 14.274 h1 313 NIL_313    0.057
4442 H0WZ 30.541 14.415 14.781 h1 313 NIL_313    0.057
4443 C0P8 25.944 19.157 -0.186 c3 314 NIL_314   -0.040
4444 C0P9 25.169 18.077 0.593 c3 314 NIL_314    0.015
4445 C0PA 27.088 18.517 -0.995 c3 314 NIL_314   -0.064
4446 H0VG 27.619 19.277 -1.573 hc 314 NIL_314    0.023
4447 H0VH 26.696 17.768 -1.688 hc 314 NIL_314    0.023
4448 H0VI 27.805 18.031 -0.329 hc 314 NIL_314    0.023
4449 H0VJ 24.759 17.366 -0.118 h1 314 NIL_314    0.047
4450 H0VK 25.903 17.509 1.171 h1 314 NIL_314    0.047
4451 H0VL 26.357 19.892 0.509 hc 314 NIL_314    0.028
4452 H0VM 25.279 19.680 -0.873 hc 314 NIL_314    0.028
4453 C0JL 28.196 11.153 -16.369 c 315 NIL_315    0.510
4454 C0JM 29.344 11.670 -15.513 c3 315 NIL_315    0.105
4455 O04I 27.271 11.857 -16.727 o 315 NIL_315   -0.553
4456 N04R 28.288 9.838 -16.683 n 315 NIL_315   -0.310
4457 N04S 29.556 13.134 -15.566 n 315 NIL_315   -0.283
4458 C0JN 29.122 11.287 -14.032 c3 315 NIL_315    0.007
4459 C0JO 27.434 9.115 -17.637 c3 315 NIL_315    0.036
4460 C0JP 29.693 13.623 -14.191 c3 315 NIL_315    0.046
4461 C0JQ 29.755 12.438 -13.202 c3 315 NIL_315    0.131
4462 C0JR 25.937 9.299 -17.471 c2 315 NIL_315   -0.031
4463 N04T 31.184 12.173 -12.782 n 315 NIL_315   -0.284
4464 C0JS 28.825 12.857 -12.049 c 315 NIL_315    0.510
4465 C0JT 25.252 8.633 -16.538 c2 315 NIL_315   -0.057
4466 C0JU 25.277 10.153 -18.254 c2 315 NIL_315   -0.057
4467 C0JV 32.078 11.457 -13.742 c3 315 NIL_315    0.015
4468 O04J 27.611 12.821 -12.136 o 315 NIL_315   -0.544
4469 C0JW 23.945 8.846 -16.366 c2 315 NIL_315   -0.049
4470 C0JX 23.974 10.370 -18.082 c2 315 NIL_315   -0.049
4471 C0JY 32.927 12.385 -14.642 c3 315 NIL_315   -0.040
4472 C0JZ 23.285 9.740 -17.120 c2 315 NIL_315    0.037
4473 C0K0 33.718 11.567 -15.683 c3 315 NIL_315   -0.064
4474 C0K1 21.921 10.125 -16.906 c 315 NIL_315    0.510
4475 O04K 21.289 10.460 -17.892 o 315 NIL_315   -0.535
4476 H0OY 34.374 10.844 -15.192 hc 315 NIL_315    0.023
4477 H0OZ 34.335 12.226 -16.298 hc 315 NIL_315    0.023
4478 H0P0 33.039 11.023 -16.344 hc 315 NIL_315    0.023
4479 H0P1 33.627 12.957 -14.028 hc 315 NIL_315    0.028
4480 H0P2 32.297 13.101 -15.171 hc 315 NIL_315    0.028
4481 H0P3 23.497 11.115 -18.715 ha 315 NIL_315    0.063
4482 H0P4 23.440 8.266 -15.605 ha 315 NIL_315    0.063
4483 H0P5 31.528 10.766 -14.372 h1 315 NIL_315    0.047
4484 H0P6 32.765 10.827 -13.167 h1 315 NIL_315    0.047
4485 H0P7 25.808 10.712 -19.020 ha 315 NIL_315    0.063
4486 H0P8 25.765 7.924 -15.890 ha 315 NIL_315    0.063
4487 H0P9 28.818 14.243 -13.976 h1 315 NIL_315    0.050
4488 H0PA 30.599 14.228 -14.096 h1 315 NIL_315    0.050
4489 H0PB 27.676 8.053 -17.554 h1 315 NIL_315    0.052
4490 H0PC 27.728 9.433 -18.639 h1 315 NIL_315    0.052
4491 H0PD 28.047 11.211 -13.856 hc 315 NIL_315    0.032
4492 H0PE 29.534 10.306 -13.783 hc 315 NIL_315    0.032
4493 H0PF 30.253 11.195 -15.887 h1 315 NIL_315    0.061
4494 H0PG 29.076 9.325 -16.317 hn 315 NIL_315    0.150
4495 C0AG 16.101 6.332 19.561 c3 316 NIL_316    0.034
4496 C0AH 14.973 7.259 19.068 c3 316 NIL_316    0.040
4497 N02M 17.058 6.195 18.457 n 316 NIL_316   -0.286
4498 C0AI 15.673 8.083 17.976 c3 316 NIL_316   -0.005
4499 N02N 13.866 6.476 18.504 n 316 NIL_316   -0.310
4500 C0AJ 16.652 7.073 17.358 c3 316 NIL_316    0.104
4501 C0AK 17.823 7.677 16.606 c 316 NIL_316    0.510
4502 O02I 17.750 8.730 16.005 o 316 NIL_316   -0.552
4503 H0CI 16.114 6.454 16.634 h1 316 NIL_316    0.061
4504 H0CJ 14.976 8.489 17.238 hc 316 NIL_316    0.031
4505 H0CK 16.224 8.908 18.436 hc 316 NIL_316    0.031
4506 H0CL 14.607 7.896 19.879 h1 316 NIL_316    0.052
4507 H0CM 16.615 6.797 20.407 h1 316 NIL_316    0.049
4508 H0CN 15.714 5.354 19.861 h1 316 NIL_316    0.049
4509 H0CO 14.101 5.570 18.127 hn 316 NIL_316    0.150
4510 C0BM 10.799 -3.308 6.077 c3 317 NIL_317   -0.040
4511 C0BN 12.343 -3.316 6.032 c3 317 NIL_317    0.015
4512 C0BO 10.260 -1.905 5.742 c3 317 NIL_317   -0.064
4513 H0DU 10.584 -1.593 4.746 hc 317 NIL_317    0.023
4514 H0DV 10.621 -1.172 6.468 hc 317 NIL_317    0.023
4515 H0DW 9.168 -1.900 5.767 hc 317 NIL_317    0.023
4516 H0DX 12.635 -3.068 5.014 h1 317 NIL_317    0.047
4517 H0DY 12.721 -2.511 6.670 h1 317 NIL_317    0.047
4518 H0DZ 10.448 -3.595 7.071 hc 317 NIL_317    0.028
4519 H0E0 10.391 -4.027 5.364 hc 317 NIL_317    0.028
4520 C0A6 15.385 5.785 -8.981 c3 318 NIL_318    0.007
4521 C0A7 14.607 5.604 -10.293 c3 318 NIL_318    0.105
4522 C0A8 15.542 4.347 -8.404 c3 318 NIL_318    0.131
4523 N02I 15.024 4.304 -10.770 n 318 NIL_318   -0.285
4524 C0A9 14.788 6.763 -11.235 c 318 NIL_318    0.510
4525 C0AA 15.037 3.446 -9.580 c3 318 NIL_318    0.046
4526 N02J 16.974 4.087 -7.988 n 318 NIL_318   -0.284
4527 C0AB 14.550 4.297 -7.231 c 318 NIL_318    0.510
4528 O02F 14.522 7.883 -10.839 o 318 NIL_318   -0.549
4529 O02G 13.365 4.051 -7.361 o 318 NIL_318   -0.544
4530 H0C6 15.618 2.537 -9.721 h1 318 NIL_318    0.050
4531 H0C7 14.005 3.124 -9.426 h1 318 NIL_318    0.050
4532 H0C8 13.536 5.547 -10.077 h1 318 NIL_318    0.061
4533 H0C9 16.357 6.238 -9.182 hc 318 NIL_318    0.032
4534 H0CA 14.853 6.463 -8.308 hc 318 NIL_318    0.032
4535 C0BS 14.079 3.652 -0.170 c3 319 NIL_319    0.046
4536 C0BT 14.498 4.584 1.013 c3 319 NIL_319    0.131
4537 N030 14.327 4.417 -1.396 n 319 NIL_319   -0.285
4538 C0BU 14.439 5.996 0.361 c3 319 NIL_319    0.007
4539 C0BV 13.409 4.568 2.102 c 319 NIL_319    0.510
4540 N031 15.886 4.301 1.543 n 319 NIL_319   -0.284
4541 C0BW 13.947 5.778 -1.082 c3 319 NIL_319    0.105
4542 O02U 12.225 4.462 1.844 o 319 NIL_319   -0.544
4543 C0BX 14.435 6.848 -2.026 c 319 NIL_319    0.510
4544 O02V 14.219 8.015 -1.754 o 319 NIL_319   -0.549
4545 H0E8 12.854 5.824 -1.105 h1 319 NIL_319    0.061
4546 H0E9 15.425 6.465 0.359 hc 319 NIL_319    0.032
4547 H0EA 13.765 6.677 0.887 hc 319 NIL_319    0.032
4548 H0EB 14.588 2.688 -0.158 h1 319 NIL_319    0.050
4549 H0EC 13.008 3.441 -0.149 h1 319 NIL_319    0.050
4550 N02S 9.385 -0.911 17.143 n 320 NIL_320   -0.298
4551 C0AX 10.508 -0.298 17.883 c3 320 NIL_320    0.129
4552 H0CZ 8.724 -0.282 16.712 hn 320 NIL_320    0.151
4553 C0AY 11.684 -0.053 16.903 c3 320 NIL_320    0.006
4554 C0AZ 10.087 1.123 18.340 c3 320 NIL_320    0.045
4555 C0B0 10.992 -1.187 19.037 c 320 NIL_320    0.510
4556 C0B1 11.866 1.471 16.804 c3 320 NIL_320    0.105
4557 N02T 10.676 2.074 17.394 n 320 NIL_320   -0.285
4558 O02N 11.521 -0.747 20.040 o 320 NIL_320   -0.545
4559 C0B2 12.154 1.981 15.402 c 320 NIL_320    0.510
4560 O02O 12.762 1.303 14.594 o 320 NIL_320   -0.549
4561 H0D0 12.720 1.763 17.422 h1 320 NIL_320    0.061
4562 H0D1 8.998 1.226 18.363 h1 320 NIL_320    0.050
4563 H0D2 10.485 1.355 19.331 h1 320 NIL_320    0.050
4564 H0D3 11.453 -0.479 15.922 hc 320 NIL_320    0.032
4565 H0D4 12.612 -0.517 17.248 hc 320 NIL_320    0.032
4566 C09B 25.999 1.082 16.418 c3 321 NIL_321   -0.004
4567 C09C 25.874 -0.235 15.619 c3 321 NIL_321   -0.052
4568 H0B8 26.868 -0.599 15.355 hc 321 NIL_321    0.024
4569 H0B9 25.318 -0.088 14.691 hc 321 NIL_321    0.024
4570 H0BA 25.377 -1.014 16.197 hc 321 NIL_321    0.024
4571 H0BB 26.672 0.937 17.264 h1 321 NIL_321    0.043
4572 H0BC 26.461 1.831 15.770 h1 321 NIL_321    0.043
4573 O024 16.579 -7.860 18.159 o 322 NIL_322   -0.545
4574 C08Z 16.497 -6.793 17.579 c 322 NIL_322    0.510
4575 C090 15.517 -6.519 16.425 c3 322 NIL_322    0.128
4576 C091 14.260 -5.861 17.032 c3 322 NIL_322    0.003
4577 C092 14.893 -7.854 15.913 c3 322 NIL_322    0.029
4578 N027 16.158 -5.609 15.412 n 322 NIL_322   -0.275
4579 C093 13.519 -7.026 17.709 c3 322 NIL_322    0.090
4580 N028 13.702 -8.142 16.757 n3 322 NIL_322   -0.290
4581 C094 12.090 -6.679 18.096 c 322 NIL_322    0.510
4582 O025 11.150 -7.426 17.902 o 322 NIL_322   -0.557
4583 H0AY 14.039 -7.260 18.643 h1 322 NIL_322    0.057
4584 H0AZ 14.520 -7.753 14.893 h1 322 NIL_322    0.046
4585 H0B0 15.626 -8.665 15.937 h1 322 NIL_322    0.046
4586 H0B1 13.634 -5.432 16.246 hc 322 NIL_322    0.032
4587 H0B2 14.501 -5.072 17.747 hc 322 NIL_322    0.032
4588 N02G 11.126 -4.127 -3.167 n 323 NIL_323   -0.284
4589 C0A0 12.399 -4.579 -3.844 c3 323 NIL_323    0.131
4590 C0A1 13.211 -3.340 -4.329 c3 323 NIL_323    0.007
4591 C0A2 12.176 -5.366 -5.173 c3 323 NIL_323    0.046
4592 C0A3 13.305 -5.461 -2.964 c 323 NIL_323    0.510
4593 C0A4 12.759 -3.155 -5.787 c3 323 NIL_323    0.105
4594 N02H 12.620 -4.507 -6.280 n 323 NIL_323   -0.285
4595 O02D 14.358 -5.905 -3.385 o 323 NIL_323   -0.544
4596 C0A5 13.565 -2.211 -6.648 c 323 NIL_323    0.510
4597 O02E 13.962 -1.161 -6.179 o 323 NIL_323   -0.549
4598 H0C1 11.768 -2.715 -5.803 h1 323 NIL_323    0.061
4599 H0C2 12.754 -6.295 -5.196 h1 323 NIL_323    0.050
4600 H0C3 11.127 -5.633 -5.310 h1 323 NIL_323    0.050
4601 H0C4 14.286 -3.539 -4.320 hc 323 NIL_323    0.032
4602 H0C5 13.038 -2.455 -3.716 hc 323 NIL_323    0.032
4603 C06I 16.769 -3.135 -2.268 c3 324 NIL_324   -0.064
4604 C06J 15.631 -3.310 -1.244 c3 324 NIL_324   -0.040
4605 C06K 16.012 -4.331 -0.149 c3 324 NIL_324    0.015
4606 H089 16.286 -5.281 -0.603 h1 324 NIL_324    0.047
4607 H08A 16.941 -3.973 0.300 h1 324 NIL_324    0.047
4608 H08B 15.387 -2.348 -0.790 hc 324 NIL_324    0.028
4609 H08C 14.744 -3.636 -1.777 hc 324 NIL_324    0.028
4610 H08D 17.674 -2.756 -1.793 hc 324 NIL_324    0.023
4611 H08E 16.472 -2.429 -3.046 hc 324 NIL_324    0.023
4612 H08F 17.007 -4.090 -2.742 hc 324 NIL_324    0.023
4613 H0DH 20.038 -6.105 16.851 hn 325 NIL_325    0.151
4614 N02Y 20.367 -5.304 17.369 n 325 NIL_325   -0.298
4615 C0BD 19.438 -4.720 18.361 c3 325 NIL_325    0.129
4616 C0BE 18.524 -3.685 17.666 c3 325 NIL_325    0.006
4617 C0BF 18.446 -5.809 18.827 c3 325 NIL_325    0.045
4618 C0BG 20.173 -4.047 19.524 c 325 NIL_325    0.510
4619 C0BH 17.236 -4.442 17.283 c3 325 NIL_325    0.105
4620 N02Z 17.319 -5.767 17.894 n 325 NIL_325   -0.285
4621 O02S 19.693 -3.934 20.636 o 325 NIL_325   -0.545
4622 C0BI 16.918 -4.540 15.797 c 325 NIL_325    0.510
4623 O02T 17.353 -3.735 14.995 o 325 NIL_325   -0.549
4624 H0DI 16.389 -3.917 17.732 h1 325 NIL_325    0.061
4625 H0DJ 18.917 -6.797 18.827 h1 325 NIL_325    0.050
4626 H0DK 18.058 -5.593 19.825 h1 325 NIL_325    0.050
4627 H0DL 19.019 -3.213 16.815 hc 325 NIL_325    0.032
4628 H0DM 18.256 -2.889 18.366 hc 325 NIL_325    0.032
4629 C0CG 8.985 -1.418 -4.974 c3 326 NIL_326   -0.064
4630 C0CH 9.967 -1.984 -3.931 c3 326 NIL_326   -0.040
4631 C0CI 10.060 -3.527 -4.024 c3 326 NIL_326    0.015
4632 H0FC 9.098 -3.951 -3.720 h1 326 NIL_326    0.047
4633 H0FD 10.188 -3.799 -5.071 h1 326 NIL_326    0.047
4634 H0FE 10.945 -1.529 -4.089 hc 326 NIL_326    0.028
4635 H0FF 9.638 -1.689 -2.932 hc 326 NIL_326    0.028
4636 H0FG 7.985 -1.837 -4.840 hc 326 NIL_326    0.023
4637 H0FH 9.322 -1.645 -5.989 hc 326 NIL_326    0.023
4638 H0FI 8.916 -0.334 -4.872 hc 326 NIL_326    0.023
4639 C0CN 9.576 8.310 15.353 c3 327 NIL_327   -0.052
4640 C0CO 10.770 7.831 16.205 c3 327 NIL_327   -0.004
4641 H0FQ 11.679 7.854 15.597 h1 327 NIL_327    0.043
4642 H0FR 10.882 8.550 17.017 h1 327 NIL_327    0.043
4643 H0FS 8.670 8.363 15.961 hc 327 NIL_327    0.024
4644 H0FT 9.390 7.646 14.506 hc 327 NIL_327    0.024
4645 H0FU 9.780 9.308 14.959 hc 327 NIL_327    0.024
4646 C095 22.212 -0.106 -5.009 c3 328 NIL_328    0.046
4647 C096 22.122 -1.063 -3.786 c3 328 NIL_328    0.131
4648 N029 21.773 -0.838 -6.201 n 328 NIL_328   -0.285
4649 C097 21.359 -2.298 -4.358 c3 328 NIL_328    0.007
4650 N02A 23.484 -1.436 -3.240 n 328 NIL_328   -0.284
4651 C098 21.214 -0.316 -2.793 c 328 NIL_328    0.510
4652 C099 21.621 -2.243 -5.873 c3 328 NIL_328    0.105
4653 O026 20.045 -0.082 -3.044 o 328 NIL_328   -0.544
4654 C09A 20.634 -2.984 -6.745 c 328 NIL_328    0.510
4655 O027 20.019 -3.941 -6.312 o 328 NIL_328   -0.549
4656 H0B3 22.576 -2.714 -6.107 h1 328 NIL_328    0.061
4657 H0B4 20.283 -2.223 -4.188 hc 328 NIL_328    0.032
4658 H0B5 21.686 -3.243 -3.916 hc 328 NIL_328    0.032
4659 H0B6 21.551 0.758 -4.891 h1 328 NIL_328    0.050
4660 H0B7 23.227 0.272 -5.143 h1 328 NIL_328    0.050
4661 C0B3 22.634 -1.035 0.176 c3 329 NIL_329    0.007
4662 C0B4 23.033 -0.276 -1.098 c3 329 NIL_329    0.105
4663 C0B5 21.420 -0.246 0.747 c3 329 NIL_329    0.131
4664 N02U 21.755 0.127 -1.637 n 329 NIL_329   -0.285
4665 C0B6 23.932 -1.083 -2.002 c 329 NIL_329    0.510
4666 C0B7 21.004 0.634 -0.484 c3 329 NIL_329    0.046
4667 C0B8 21.968 0.640 1.876 c 329 NIL_329    0.510
4668 N02V 20.379 -1.213 1.253 n 329 NIL_329   -0.284
4669 O02P 25.038 -1.392 -1.599 o 329 NIL_329   -0.549
4670 O02Q 22.448 1.742 1.690 o 329 NIL_329   -0.544
4671 H0D5 19.940 0.621 -0.686 h1 329 NIL_329    0.050
4672 H0D6 21.280 1.682 -0.349 h1 329 NIL_329    0.050
4673 H0D7 23.589 0.627 -0.830 h1 329 NIL_329    0.061
4674 H0D8 22.336 -2.053 -0.091 hc 329 NIL_329    0.032
4675 H0D9 23.469 -1.098 0.880 hc 329 NIL_329    0.032
4676 N032 12.997 4.140 11.770 n 330 NIL_330   -0.314
4677 C0BY 14.207 4.491 11.018 c3 330 NIL_330    0.013
4678 C0BZ 14.309 3.724 9.681 c3 330 NIL_330   -0.010
4679 C0C0 13.163 4.019 8.678 c3 330 NIL_330    0.101
4680 C0C1 13.316 5.413 8.096 c 330 NIL_330    0.510
4681 N033 13.123 2.953 7.687 n 330 NIL_330   -0.302
4682 O02W 13.073 6.378 8.798 o 330 NIL_330   -0.550
4683 H0ED 12.203 4.002 9.202 h1 330 NIL_330    0.061
4684 H0EE 15.268 3.954 9.209 hc 330 NIL_330    0.031
4685 H0EF 14.323 2.654 9.911 hc 330 NIL_330    0.031
4686 H0EG 15.081 4.235 11.622 h1 330 NIL_330    0.047
4687 H0EH 14.222 5.569 10.843 h1 330 NIL_330    0.047
4688 H0EI 12.863 2.041 8.031 hn 330 NIL_330    0.150
4689 H0EJ 12.210 3.802 11.237 hn 330 NIL_330    0.149
4690 C0AL 22.335 0.787 4.354 c3 331 NIL_331    0.046
4691 C0AM 21.834 -0.048 5.565 c3 331 NIL_331    0.131
4692 N02O 21.897 0.124 3.124 n 331 NIL_331   -0.285
4693 C0AN 21.101 -1.263 4.917 c3 331 NIL_331    0.007
4694 N02P 22.958 -0.495 6.458 n 331 NIL_331   -0.284
4695 C0AO 20.770 0.810 6.261 c 331 NIL_331    0.510
4696 C0AP 21.497 -1.242 3.429 c3 331 NIL_331    0.105
4697 O02J 19.787 1.227 5.677 o 331 NIL_331   -0.547
4698 C0AQ 20.453 -1.793 2.484 c 331 NIL_331    0.510
4699 O02K 19.708 -2.691 2.831 o 331 NIL_331   -0.549
4700 H0CP 22.374 -1.875 3.276 h1 331 NIL_331    0.061
4701 H0CQ 20.016 -1.164 5.002 hc 331 NIL_331    0.032
4702 H0CR 21.369 -2.216 5.380 hc 331 NIL_331    0.032
4703 H0CS 21.937 1.805 4.377 h1 331 NIL_331    0.050
4704 H0CT 23.420 0.853 4.344 h1 331 NIL_331    0.050
4705 C0CP 17.845 0.501 0.858 c3 332 NIL_332   -0.064
4706 C0CQ 17.916 -1.033 0.778 c3 332 NIL_332   -0.040
4707 C0CR 19.284 -1.612 0.337 c3 332 NIL_332    0.015
4708 H0FV 19.211 -2.704 0.349 h1 332 NIL_332    0.047
4709 H0FW 19.493 -1.345 -0.698 h1 332 NIL_332    0.047
4710 H0FX 17.661 -1.432 1.760 hc 332 NIL_332    0.028
4711 H0FY 17.147 -1.372 0.090 hc 332 NIL_332    0.028
4712 H0FZ 17.911 0.943 -0.137 hc 332 NIL_332    0.023
4713 H0G0 18.644 0.900 1.486 hc 332 NIL_332    0.023
4714 H0G1 16.890 0.803 1.295 hc 332 NIL_332    0.023
4715 C07Q 15.279 5.040 -3.604 c3 333 NIL_333    0.131
4716 C07R 16.665 4.755 -4.268 c3 333 NIL_333    0.007
4717 C07S 14.294 4.693 -4.758 c3 333 NIL_333    0.046
4718 N01T 15.108 6.477 -3.152 n 333 NIL_333   -0.284
4719 C07T 14.991 4.004 -2.500 c 333 NIL_333    0.510
4720 C07U 16.430 4.982 -5.775 c3 333 NIL_333    0.105
4721 N01U 15.050 4.602 -6.015 n 333 NIL_333   -0.285
4722 O01Q 15.309 2.833 -2.606 o 333 NIL_333   -0.544
4723 C07V 17.419 4.342 -6.721 c 333 NIL_333    0.510
4724 O01R 18.556 4.093 -6.362 o 333 NIL_333   -0.549
4725 H09R 16.503 6.043 -6.013 h1 333 NIL_333    0.061
4726 H09S 13.816 3.723 -4.591 h1 333 NIL_333    0.050
4727 H09T 13.509 5.449 -4.843 h1 333 NIL_333    0.050
4728 H09U 16.968 3.714 -4.136 hc 333 NIL_333    0.032
4729 H09V 17.470 5.375 -3.869 hc 333 NIL_333    0.032
4730 C0C5 17.944 3.622 -9.030 c3 334 NIL_334    0.015
4731 C0C6 18.538 4.721 -9.945 c3 334 NIL_334   -0.040
4732 C0C7 19.341 5.772 -9.155 c3 334 NIL_334   -0.064
4733 H0ER 19.814 6.477 -9.843 hc 334 NIL_334    0.023
4734 H0ES 20.125 5.292 -8.565 hc 334 NIL_334    0.023
4735 H0ET 18.694 6.335 -8.479 hc 334 NIL_334    0.023
4736 H0EU 17.759 5.208 -10.532 hc 334 NIL_334    0.028
4737 H0EV 19.204 4.244 -10.666 hc 334 NIL_334    0.028
4738 H0EW 17.514 2.850 -9.663 h1 334 NIL_334    0.047
4739 H0EX 18.783 3.133 -8.532 h1 334 NIL_334    0.047
4740 C07W 14.383 -6.636 5.917 c 335 NIL_335    0.510
4741 C07X 13.685 -5.370 5.412 c3 335 NIL_335    0.131
4742 O01S 14.985 -7.386 5.172 o 335 NIL_335   -0.547
4743 C07Y 14.749 -4.501 4.671 c3 335 NIL_335    0.007
4744 C07Z 12.738 -5.848 4.274 c3 335 NIL_335    0.046
4745 N01V 12.969 -4.592 6.479 n 335 NIL_335   -0.284
4746 C080 14.195 -4.302 3.247 c3 335 NIL_335    0.105
4747 N01W 13.349 -5.451 3.001 n 335 NIL_335   -0.285
4748 C081 15.239 -4.049 2.183 c 335 NIL_335    0.510
4749 O01T 16.256 -3.445 2.464 o 335 NIL_335   -0.549
4750 H09W 13.547 -3.424 3.221 h1 335 NIL_335    0.061
4751 H09X 12.589 -6.932 4.299 h1 335 NIL_335    0.050
4752 H09Y 11.761 -5.369 4.344 h1 335 NIL_335    0.050
4753 H09Z 15.711 -5.017 4.615 hc 335 NIL_335    0.032
4754 H0A0 14.932 -3.543 5.163 hc 335 NIL_335    0.032
4755 C06L 19.946 -3.136 -16.369 c 336 NIL_336    0.510
4756 C06M 21.094 -2.619 -15.513 c3 336 NIL_336    0.105
4757 O01I 19.021 -2.432 -16.727 o 336 NIL_336   -0.553
4758 N01L 20.038 -4.451 -16.683 n 336 NIL_336   -0.310
4759 N01M 21.306 -1.155 -15.566 n 336 NIL_336   -0.283
4760 C06N 20.872 -3.002 -14.032 c3 336 NIL_336    0.007
4761 C06O 19.184 -5.174 -17.637 c3 336 NIL_336    0.036
4762 C06P 21.443 -0.666 -14.191 c3 336 NIL_336    0.046
4763 C06Q 21.505 -1.851 -13.202 c3 336 NIL_336    0.131
4764 C06R 17.687 -4.990 -17.471 c2 336 NIL_336   -0.031
4765 N01N 22.934 -2.116 -12.782 n 336 NIL_336   -0.284
4766 C06S 20.575 -1.432 -12.049 c 336 NIL_336    0.510
4767 C06T 17.002 -5.656 -16.538 c2 336 NIL_336   -0.057
4768 C06U 17.027 -4.136 -18.254 c2 336 NIL_336   -0.057
4769 C06V 23.828 -2.832 -13.742 c3 336 NIL_336    0.015
4770 O01J 19.361 -1.468 -12.136 o 336 NIL_336   -0.544
4771 C06W 15.695 -5.443 -16.366 c2 336 NIL_336   -0.049
4772 C06X 15.724 -3.919 -18.082 c2 336 NIL_336   -0.049
4773 C06Y 24.677 -1.904 -14.642 c3 336 NIL_336   -0.040
4774 C06Z 15.035 -4.549 -17.120 c2 336 NIL_336    0.037
4775 C070 25.468 -2.722 -15.683 c3 336 NIL_336   -0.064
4776 C071 13.671 -4.164 -16.906 c 336 NIL_336    0.510
4777 O01K 13.039 -3.829 -17.892 o 336 NIL_336   -0.535
4778 H08G 26.124 -3.445 -15.192 hc 336 NIL_336    0.023
4779 H08H 26.085 -2.063 -16.298 hc 336 NIL_336    0.023
4780 H08I 24.789 -3.266 -16.344 hc 336 NIL_336    0.023
4781 H08J 25.377 -1.332 -14.028 hc 336 NIL_336    0.028
4782 H08K 24.047 -1.188 -15.171 hc 336 NIL_336    0.028
4783 H08L 15.247 -3.174 -18.715 ha 336 NIL_336    0.063
4784 H08M 15.190 -6.023 -15.605 ha 336 NIL_336    0.063
4785 H08N 23.278 -3.523 -14.372 h1 336 NIL_336    0.047
4786 H08O 24.515 -3.462 -13.167 h1 336 NIL_336    0.047
4787 H08P 17.558 -3.577 -19.020 ha 336 NIL_336    0.063
4788 H08Q 17.515 -6.365 -15.890 ha 336 NIL_336    0.063
4789 H08R 20.568 -0.046 -13.976 h1 336 NIL_336    0.050
4790 H08S 22.349 -0.061 -14.096 h1 336 NIL_336    0.050
4791 H08T 19.426 -6.236 -17.554 h1 336 NIL_336    0.052
4792 H08U 19.478 -4.856 -18.639 h1 336 NIL_336    0.052
4793 H08V 19.797 -3.078 -13.856 hc 336 NIL_336    0.032
4794 H08W 21.284 -3.983 -13.783 hc 336 NIL_336    0.032
4795 H08X 22.003 -3.094 -15.887 h1 336 NIL_336    0.061
4796 H08Y 20.826 -4.964 -16.317 hn 336 NIL_336    0.150
4797 C0AC 21.648 0.508 9.836 c3 337 NIL_337   -0.010
4798 C0AD 22.089 0.816 8.383 c3 337 NIL_337    0.101
4799 C0AE 22.743 0.863 10.865 c3 337 NIL_337    0.013
4800 C0AF 23.013 -0.245 7.797 c 337 NIL_337    0.510
4801 N02K 20.926 1.126 7.557 n 337 NIL_337   -0.302
4802 N02L 22.328 0.538 12.232 n 337 NIL_337   -0.314
4803 O02H 23.786 -0.854 8.513 o 337 NIL_337   -0.550
4804 H0CB 23.660 0.308 10.658 h1 337 NIL_337    0.047
4805 H0CC 22.970 1.929 10.793 h1 337 NIL_337    0.047
4806 H0CD 22.681 1.734 8.399 h1 337 NIL_337    0.061
4807 H0CE 21.371 -0.545 9.924 hc 337 NIL_337    0.031
4808 H0CF 20.756 1.094 10.080 hc 337 NIL_337    0.031
4809 H0CG 22.334 -0.436 12.492 hn 337 NIL_337    0.149
4810 H0CH 20.209 1.685 7.993 hn 337 NIL_337    0.150
4811 C0B9 14.156 -5.663 10.789 c3 338 NIL_338    0.013
4812 N02W 15.165 -5.862 11.835 n 338 NIL_338   -0.314
4813 C0BA 14.765 -5.898 9.387 c3 338 NIL_338   -0.010
4814 C0BB 13.706 -6.151 8.282 c3 338 NIL_338    0.101
4815 C0BC 13.034 -4.868 7.815 c 338 NIL_338    0.510
4816 N02X 14.303 -6.957 7.220 n 338 NIL_338   -0.302
4817 O02R 12.545 -4.113 8.634 o 338 NIL_338   -0.550
4818 H0DA 12.903 -6.763 8.704 h1 338 NIL_338    0.061
4819 H0DB 15.408 -5.058 9.110 hc 338 NIL_338    0.031
4820 H0DC 15.410 -6.779 9.451 hc 338 NIL_338    0.031
4821 H0DD 13.758 -4.648 10.862 h1 338 NIL_338    0.047
4822 H0DE 13.344 -6.376 10.961 h1 338 NIL_338    0.047
4823 H0DF 14.741 -7.816 7.517 hn 338 NIL_338    0.150
4824 H0DG 16.071 -6.188 11.530 hn 338 NIL_338    0.149
4825 O022 23.080 4.021 17.808 o 339 NIL_339   -0.545
4826 C08T 22.163 3.451 17.246 c 339 NIL_339    0.510
4827 C08U 22.349 2.126 16.485 c3 339 NIL_339    0.128
4828 C08V 22.473 0.984 17.516 c3 339 NIL_339    0.003
4829 C08W 23.774 2.127 15.857 c3 339 NIL_339    0.029
4830 N025 21.233 1.835 15.517 n 339 NIL_339   -0.275
4831 C08X 23.936 0.995 18.023 c3 339 NIL_339    0.090
4832 N026 24.698 1.620 16.899 n3 339 NIL_339   -0.290
4833 C08Y 24.396 -0.332 18.640 c 339 NIL_339    0.510
4834 O023 25.565 -0.619 18.816 o 339 NIL_339   -0.557
4835 H0AT 23.969 1.703 18.857 h1 339 NIL_339    0.057
4836 H0AU 23.838 1.467 14.998 h1 339 NIL_339    0.046
4837 H0AV 24.069 3.128 15.528 h1 339 NIL_339    0.046
4838 H0AW 22.276 0.032 17.020 hc 339 NIL_339    0.032
4839 H0AX 21.753 1.089 18.332 hc 339 NIL_339    0.032
4840 O02A 21.532 -1.037 -17.753 o 340 NIL_340   -0.535
4841 C09J 21.311 -0.423 -16.724 c 340 NIL_340    0.510
4842 C09K 21.006 0.978 -16.876 c2 340 NIL_340    0.037
4843 C09L 20.557 1.411 -18.067 c2 340 NIL_340   -0.049
4844 C09M 21.069 1.888 -15.885 c2 340 NIL_340   -0.049
4845 C09N 20.157 2.669 -18.249 c2 340 NIL_340   -0.057
4846 C09O 20.671 3.148 -16.070 c2 340 NIL_340   -0.057
4847 C09P 20.195 3.550 -17.247 c2 340 NIL_340   -0.031
4848 C09Q 19.658 4.956 -17.442 c3 340 NIL_340    0.036
4849 N02D 18.569 5.335 -16.531 n 340 NIL_340   -0.310
4850 C09R 17.480 4.584 -16.244 c 340 NIL_340    0.510
4851 C09S 16.473 5.274 -15.334 c3 340 NIL_340    0.105
4852 O02B 17.332 3.449 -16.659 o 340 NIL_340   -0.553
4853 N02E 15.087 4.773 -15.431 n 340 NIL_340   -0.283
4854 C09T 16.903 5.127 -13.858 c3 340 NIL_340    0.007
4855 C09U 14.541 4.662 -14.072 c3 340 NIL_340    0.046
4856 C09V 15.583 5.150 -13.033 c3 340 NIL_340    0.131
4857 N02F 15.243 6.525 -12.499 n 340 NIL_340   -0.284
4858 C09W 15.606 4.044 -11.959 c 340 NIL_340    0.510
4859 C09X 15.459 7.698 -13.404 c3 340 NIL_340    0.015
4860 O02C 16.088 2.944 -12.167 o 340 NIL_340   -0.544
4861 C09Y 14.300 8.055 -14.364 c3 340 NIL_340   -0.040
4862 C09Z 12.950 8.269 -13.651 c3 340 NIL_340   -0.064
4863 H0BI 12.202 8.616 -14.362 hc 340 NIL_340    0.023
4864 H0BJ 13.045 9.019 -12.863 hc 340 NIL_340    0.023
4865 H0BK 12.587 7.339 -13.208 hc 340 NIL_340    0.023
4866 H0BL 14.183 7.291 -15.131 hc 340 NIL_340    0.028
4867 H0BM 14.565 8.977 -14.886 hc 340 NIL_340    0.028
4868 H0BN 16.369 7.585 -13.986 h1 340 NIL_340    0.047
4869 H0BO 15.650 8.582 -12.791 h1 340 NIL_340    0.047
4870 H0BP 14.291 3.612 -13.895 h1 340 NIL_340    0.050
4871 H0BQ 13.627 5.256 -13.989 h1 340 NIL_340    0.050
4872 H0BR 17.422 4.171 -13.751 hc 340 NIL_340    0.032
4873 H0BS 17.617 5.895 -13.551 hc 340 NIL_340    0.032
4874 H0BT 16.459 6.328 -15.619 h1 340 NIL_340    0.061
4875 H0BU 20.470 5.676 -17.316 h1 340 NIL_340    0.052
4876 H0BV 19.276 5.064 -18.461 h1 340 NIL_340    0.052
4877 H0BW 20.713 3.843 -15.234 ha 340 NIL_340    0.063
4878 H0BX 19.770 2.965 -19.219 ha 340 NIL_340    0.063
4879 H0BY 21.442 1.656 -14.901 ha 340 NIL_340    0.063
4880 H0BZ 20.465 0.735 -18.914 ha 340 NIL_340    0.063
4881 H0C0 18.615 6.263 -16.138 hn 340 NIL_340    0.150
4882 C0CJ 12.901 4.171 13.117 c 341 NIL_341    0.510
4883 C0CK 11.595 3.624 13.661 c3 341 NIL_341    0.092
4884 O02Y 13.802 4.577 13.826 o 341 NIL_341   -0.557
4885 H0FJ 10.803 4.344 13.459 h1 341 NIL_341    0.057
4886 H0FK 11.354 2.741 13.062 h1 341 NIL_341    0.057
4887 C0CL 13.652 -9.491 17.373 c3 342 NIL_342   -0.004
4888 C0CM 13.562 -10.608 16.315 c3 342 NIL_342   -0.052
4889 H0FL 13.500 -11.582 16.805 hc 342 NIL_342    0.024
4890 H0FM 14.439 -10.612 15.664 hc 342 NIL_342    0.024
4891 H0FN 12.670 -10.478 15.699 hc 342 NIL_342    0.024
4892 H0FO 12.771 -9.560 18.016 h1 342 NIL_342    0.043
4893 H0FP 14.540 -9.647 17.993 h1 342 NIL_342    0.043
4894 C072 13.505 3.383 -16.756 c2 343 NIL_343    0.037
4895 C073 14.498 4.404 -16.607 c 343 NIL_343    0.510
4896 C074 12.540 3.130 -15.857 c2 343 NIL_343   -0.049
4897 C075 13.581 2.589 -17.834 c2 343 NIL_343   -0.049
4898 O01L 14.911 4.906 -17.639 o 343 NIL_343   -0.535
4899 C076 11.699 2.106 -16.026 c2 343 NIL_343   -0.057
4900 C077 12.745 1.566 -17.995 c2 343 NIL_343   -0.057
4901 C078 11.801 1.305 -17.088 c2 343 NIL_343   -0.031
4902 C079 10.879 0.116 -17.271 c3 343 NIL_343    0.036
4903 N01O 11.081 -1.015 -16.356 n 343 NIL_343   -0.310
4904 C07A 12.259 -1.638 -16.113 c 343 NIL_343    0.510
4905 C07B 12.117 -2.948 -15.348 c3 343 NIL_343    0.105
4906 O01M 13.333 -1.192 -16.472 o 343 NIL_343   -0.553
4907 N01P 13.090 -4.012 -15.678 n 343 NIL_343   -0.283
4908 C07C 12.258 -2.715 -13.832 c3 343 NIL_343    0.007
4909 C07D 13.379 -4.747 -14.436 c3 343 NIL_343    0.046
4910 C07E 12.623 -4.098 -13.243 c3 343 NIL_343    0.131
4911 N01Q 11.351 -4.763 -12.813 n 343 NIL_343   -0.284
4912 C07F 13.639 -3.965 -12.094 c 343 NIL_343    0.510
4913 C07G 10.458 -5.313 -13.863 c3 343 NIL_343    0.015
4914 O01N 14.711 -3.409 -12.238 o 343 NIL_343   -0.544
4915 C07H 10.045 -6.780 -13.605 c3 343 NIL_343   -0.040
4916 C07I 11.238 -7.754 -13.611 c3 343 NIL_343   -0.064
4917 H08Z 11.997 -7.456 -12.885 hc 343 NIL_343    0.023
4918 H090 11.697 -7.794 -14.600 hc 343 NIL_343    0.023
4919 H091 10.898 -8.758 -13.348 hc 343 NIL_343    0.023
4920 H092 9.334 -7.084 -14.375 hc 343 NIL_343    0.028
4921 H093 9.525 -6.855 -12.648 hc 343 NIL_343    0.028
4922 H094 10.932 -5.285 -14.842 h1 343 NIL_343    0.047
4923 H095 9.562 -4.687 -13.912 h1 343 NIL_343    0.047
4924 H096 14.450 -4.672 -14.251 h1 343 NIL_343    0.050
4925 H097 13.109 -5.801 -14.555 h1 343 NIL_343    0.050
4926 H098 13.061 -1.995 -13.649 hc 343 NIL_343    0.032
4927 H099 11.339 -2.309 -13.403 hc 343 NIL_343    0.032
4928 H09A 11.119 -3.334 -15.568 h1 343 NIL_343    0.061
4929 H09B 9.845 0.450 -17.161 h1 343 NIL_343    0.052
4930 H09C 10.981 -0.271 -18.289 h1 343 NIL_343    0.052
4931 H09D 12.853 0.929 -18.869 ha 343 NIL_343    0.063
4932 H09E 10.931 1.917 -15.279 ha 343 NIL_343    0.063
4933 H09F 14.357 2.736 -18.582 ha 343 NIL_343    0.063
4934 H09G 12.400 3.750 -14.982 ha 343 NIL_343    0.063
4935 H09H 10.241 -1.437 -15.988 hn 343 NIL_343    0.150
4936 C08E 21.606 -0.319 -7.434 c 344 NIL_344    0.510
4937 C08F 21.222 -1.313 -8.542 c3 344 NIL_344    0.131
4938 O01Y 21.806 0.865 -7.635 o 344 NIL_344   -0.544
4939 C08G 22.577 -1.697 -9.206 c3 344 NIL_344    0.007
4940 C08H 20.467 -0.570 -9.689 c3 344 NIL_344    0.046
4941 N021 20.497 -2.538 -8.027 n 344 NIL_344   -0.284
4942 C08I 22.558 -1.029 -10.589 c3 344 NIL_344    0.105
4943 N022 21.151 -0.954 -10.925 n 344 NIL_344   -0.285
4944 C08J 23.456 -1.724 -11.585 c 344 NIL_344    0.510
4945 O01Z 24.623 -1.915 -11.299 o 344 NIL_344   -0.549
4946 H0AC 22.926 -0.002 -10.501 h1 344 NIL_344    0.061
4947 H0AD 19.397 -0.776 -9.711 h1 344 NIL_344    0.050
4948 H0AE 20.567 0.515 -9.605 h1 344 NIL_344    0.050
4949 H0AF 22.676 -2.777 -9.303 hc 344 NIL_344    0.032
4950 H0AG 23.444 -1.357 -8.634 hc 344 NIL_344    0.032
4951 C0CV 16.589 -1.197 -7.753 c3 345 NIL_345   -0.064
4952 C0CW 15.815 -1.391 -9.072 c3 345 NIL_345   -0.040
4953 C0CX 14.273 -1.529 -8.917 c3 345 NIL_345    0.015
4954 H0G9 13.873 -0.555 -8.622 h1 345 NIL_345    0.047
4955 H0GA 13.864 -1.730 -9.909 h1 345 NIL_345    0.047
4956 H0GB 16.010 -0.527 -9.711 hc 345 NIL_345    0.028
4957 H0GC 16.231 -2.246 -9.602 hc 345 NIL_345    0.028
4958 H0GD 17.658 -1.119 -7.965 hc 345 NIL_345    0.023
4959 H0GE 16.443 -2.046 -7.081 hc 345 NIL_345    0.023
4960 H0GF 16.273 -0.284 -7.245 hc 345 NIL_345    0.023
4961 C0AR 13.200 -3.811 -8.570 c3 346 NIL_346    0.131
4962 C0AS 11.858 -3.582 -9.336 c3 346 NIL_346    0.007
4963 C0AT 14.115 -4.422 -9.677 c3 346 NIL_346    0.046
4964 N02Q 13.763 -2.553 -7.955 n 346 NIL_346   -0.284
4965 C0AU 12.860 -4.903 -7.543 c 346 NIL_346    0.510
4966 C0AV 11.934 -4.636 -10.452 c3 346 NIL_346    0.105
4967 N02R 13.308 -4.518 -10.902 n 346 NIL_346   -0.285
4968 O02L 12.780 -6.084 -7.830 o 346 NIL_346   -0.544
4969 C0AW 10.888 -4.599 -11.544 c 346 NIL_346    0.510
4970 O02M 9.704 -4.531 -11.281 o 346 NIL_346   -0.549
4971 H0CU 11.814 -5.633 -10.019 h1 346 NIL_346    0.061
4972 H0CV 15.001 -3.827 -9.855 h1 346 NIL_346    0.050
4973 H0CW 14.463 -5.422 -9.408 h1 346 NIL_346    0.050
4974 H0CX 11.801 -2.583 -9.774 hc 346 NIL_346    0.032
4975 H0CY 10.985 -3.727 -8.694 hc 346 NIL_346    0.032
4976 C0CY 21.510 0.823 14.469 c3 347 NIL_347    0.092
4977 C0CZ 21.919 1.440 13.147 c 347 NIL_347    0.510
4978 O02Z 21.880 2.636 12.923 o 347 NIL_347   -0.557
4979 H0GG 20.614 0.227 14.274 h1 347 NIL_347    0.057
4980 H0GH 22.291 0.126 14.781 h1 347 NIL_347    0.057
4981 C0BP 25.267 -1.627 -5.079 c3 348 NIL_348   -0.040
4982 C0BQ 24.343 -2.340 -4.066 c3 348 NIL_348    0.015
4983 C0BR 26.199 -2.637 -5.774 c3 348 NIL_348   -0.064
4984 H0E1 26.802 -3.180 -5.041 hc 348 NIL_348    0.023
4985 H0E2 26.877 -2.120 -6.456 hc 348 NIL_348    0.023
4986 H0E3 25.619 -3.361 -6.350 hc 348 NIL_348    0.023
4987 H0E4 23.755 -3.098 -4.577 h1 348 NIL_348    0.047
4988 H0E5 24.987 -2.917 -3.395 h1 348 NIL_348    0.047
4989 H0E6 25.869 -0.877 -4.561 hc 348 NIL_348    0.028
4990 H0E7 24.685 -1.118 -5.847 hc 348 NIL_348    0.028
4991 C0CB 10.238 -3.125 17.666 c3 349 NIL_349    0.104
4992 N034 10.782 -2.516 18.881 n 349 NIL_349   -0.286
4993 C0CC 9.721 -4.507 18.088 c3 349 NIL_349   -0.005
4994 C0CD 9.232 -2.240 16.956 c 349 NIL_349    0.510
4995 C0CE 10.977 -3.560 19.898 c3 349 NIL_349    0.034
4996 C0CF 10.695 -4.911 19.208 c3 349 NIL_349    0.040
4997 O02X 8.327 -2.678 16.275 o 349 NIL_349   -0.552
4998 N035 11.948 -5.469 18.681 n 349 NIL_349   -0.310
4999 H0F5 10.243 -5.626 19.900 h1 349 NIL_349    0.052
5000 H0F6 10.255 -3.400 20.704 h1 349 NIL_349    0.049
5001 H0F7 11.993 -3.521 20.304 h1 349 NIL_349    0.049
5002 H0F8 9.704 -5.213 17.255 hc 349 NIL_349    0.031
5003 H0F9 8.711 -4.422 18.500 hc 349 NIL_349    0.031
5004 H0FA 11.073 -3.255 16.971 h1 349 NIL_349    0.061
5005 H0FB 12.772 -4.898 18.794 hn 349 NIL_349    0.150
5006 C0C2 15.688 7.561 -4.000 c3 350 NIL_350    0.015
5007 C0C3 14.723 8.090 -5.085 c3 350 NIL_350   -0.040
5008 C0C4 15.379 9.221 -5.895 c3 350 NIL_350   -0.064
5009 H0EK 14.672 9.617 -6.628 hc 350 NIL_350    0.023
5010 H0EL 16.257 8.849 -6.428 hc 350 NIL_350    0.023
5011 H0EM 15.689 10.039 -5.240 hc 350 NIL_350    0.023
5012 H0EN 13.810 8.463 -4.613 hc 350 NIL_350    0.028
5013 H0EO 14.433 7.295 -5.772 hc 350 NIL_350    0.028
5014 H0EP 16.633 7.266 -4.449 h1 350 NIL_350    0.047
5015 H0EQ 15.953 8.403 -3.352 h1 350 NIL_350    0.047
5016 C088 19.129 5.653 17.276 c3 351 NIL_351    0.129
5017 C089 18.841 4.545 16.246 c3 351 NIL_351    0.006
5018 C08A 20.608 5.380 17.652 c3 351 NIL_351    0.045
5019 N01Z 18.981 6.983 16.653 n 351 NIL_351   -0.298
5020 C08B 18.188 5.450 18.468 c 351 NIL_351    0.510
5021 C08C 19.732 3.382 16.696 c3 351 NIL_351    0.105
5022 N020 20.932 4.007 17.234 n 351 NIL_351   -0.285
5023 H0A6 19.792 7.363 16.188 hn 351 NIL_351    0.151
5024 O01W 18.433 4.689 19.386 o 351 NIL_351   -0.545
5025 C08D 19.980 2.359 15.613 c 351 NIL_351    0.510
5026 O01X 19.086 2.040 14.852 o 351 NIL_351   -0.549
5027 H0A7 19.247 2.848 17.518 h1 351 NIL_351    0.061
5028 H0A8 21.266 6.065 17.109 h1 351 NIL_351    0.050
5029 H0A9 20.779 5.499 18.725 h1 351 NIL_351    0.050
5030 H0AA 19.148 4.872 15.248 hc 351 NIL_351    0.032
5031 H0AB 17.785 4.266 16.207 hc 351 NIL_351    0.032
5032 C0BJ 21.194 -5.402 -9.057 c3 352 NIL_352   -0.064
5033 C0BK 20.455 -4.330 -9.881 c3 352 NIL_352   -0.040
5034 C0BL 19.674 -3.332 -8.992 c3 352 NIL_352    0.015
5035 H0DN 19.081 -2.691 -9.638 h1 352 NIL_352    0.047
5036 H0DO 18.936 -3.910 -8.430 h1 352 NIL_352    0.047
5037 H0DP 21.159 -3.808 -10.530 hc 352 NIL_352    0.028
5038 H0DQ 19.745 -4.826 -10.545 hc 352 NIL_352    0.028
5039 H0DR 21.654 -6.135 -9.723 hc 352 NIL_352    0.023
5040 H0DS 20.498 -5.929 -8.400 hc 352 NIL_352    0.023
5041 H0DT 21.979 -4.956 -8.442 hc 352 NIL_352    0.023
5042 C08K 12.095 8.221 6.444 c3 353 NIL_353   -0.064
5043 C08L 13.357 7.857 5.641 c3 353 NIL_353   -0.040
5044 C08M 14.299 6.887 6.393 c3 353 NIL_353    0.015
5045 H0AH 15.196 6.758 5.793 h1 353 NIL_353    0.047
5046 H0AI 14.650 7.406 7.289 h1 353 NIL_353    0.047
5047 H0AJ 13.080 7.452 4.668 hc 353 NIL_353    0.028
5048 H0AK 13.911 8.776 5.438 hc 353 NIL_353    0.028
5049 H0AL 11.482 7.337 6.629 hc 353 NIL_353    0.023
5050 H0AM 11.496 8.946 5.890 hc 353 NIL_353    0.023
5051 H0AN 12.364 8.670 7.404 hc 353 NIL_353    0.023
5052 C0C8 17.694 4.868 -0.186 c3 354 NIL_354   -0.040
5053 C0C9 16.919 3.788 0.593 c3 354 NIL_354    0.015
5054 C0CA 18.838 4.228 -0.995 c3 354 NIL_354   -0.064
5055 H0EY 19.369 4.988 -1.573 hc 354 NIL_354    0.023
5056 H0EZ 18.446 3.479 -1.688 hc 354 NIL_354    0.023
5057 H0F0 19.555 3.742 -0.329 hc 354 NIL_354    0.023
5058 H0F1 16.509 3.077 -0.118 h1 354 NIL_354    0.047
5059 H0F2 17.653 3.220 1.171 h1 354 NIL_354    0.047
5060 H0F3 18.107 5.603 0.509 hc 354 NIL_354    0.028
5061 H0F4 17.029 5.391 -0.873 hc 354 NIL_354    0.028
5062 O028 12.238 7.968 18.870 o 355 NIL_355   -0.557
5063 C09D 12.588 6.907 18.391 c 355 NIL_355    0.510
5064 C09E 11.614 5.949 17.699 c3 355 NIL_355    0.090
5065 N02B 10.575 6.459 16.754 n3 355 NIL_355   -0.290
5066 C09F 12.277 4.788 16.931 c3 355 NIL_355    0.003
5067 C09G 10.400 5.431 15.686 c3 355 NIL_355    0.029
5068 C09H 11.121 4.133 16.148 c3 355 NIL_355    0.128
5069 N02C 11.664 3.214 15.088 n 355 NIL_355   -0.275
5070 C09I 10.267 3.342 17.153 c 355 NIL_355    0.510
5071 O029 9.274 3.793 17.692 o 355 NIL_355   -0.545
5072 H0BD 10.891 5.821 14.792 h1 355 NIL_355    0.046
5073 H0BE 9.344 5.257 15.465 h1 355 NIL_355    0.046
5074 H0BF 13.022 5.185 16.237 hc 355 NIL_355    0.032
5075 H0BG 12.774 4.088 17.607 hc 355 NIL_355    0.032
5076 H0BH 11.074 5.495 18.534 h1 355 NIL_355    0.057
5077 C07L 22.037 -3.626 17.925 c3 356 NIL_356    0.104
5078 N01R 21.417 -3.592 19.250 n 356 NIL_356   -0.286
5079 C07M 23.548 -3.492 18.175 c3 356 NIL_356   -0.005
5080 C07N 21.597 -4.814 17.092 c 356 NIL_356    0.510
5081 C07O 22.383 -3.066 20.223 c3 356 NIL_356    0.034
5082 C07P 23.598 -2.579 19.413 c3 356 NIL_356    0.040
5083 O01P 22.296 -5.322 16.239 o 356 NIL_356   -0.552
5084 N01S 23.413 -1.174 19.024 n 356 NIL_356   -0.310
5085 H09K 24.530 -2.697 19.975 h1 356 NIL_356    0.052
5086 H09L 22.686 -3.881 20.885 h1 356 NIL_356    0.049
5087 H09M 21.942 -2.257 20.813 h1 356 NIL_356    0.049
5088 H09N 24.080 -3.073 17.315 hc 356 NIL_356    0.031
5089 H09O 23.980 -4.465 18.420 hc 356 NIL_356    0.031
5090 H09P 21.690 -2.738 17.387 h1 356 NIL_356    0.061
5091 H09Q 22.459 -0.868 18.902 hn 356 NIL_356    0.150
5092 C0CS 25.786 0.303 5.483 c3 357 NIL_357   -0.064
5093 C0CT 25.427 -1.115 5.962 c3 357 NIL_357   -0.040
5094 C0CU 23.919 -1.455 5.839 c3 357 NIL_357    0.015
5095 H0G2 23.719 -1.551 4.775 h1 357 NIL_357    0.047
5096 H0G3 23.753 -2.438 6.290 h1 357 NIL_357    0.047
5097 H0G4 25.990 -1.835 5.362 hc 357 NIL_357    0.028
5098 H0G5 25.767 -1.242 6.991 hc 357 NIL_357    0.028
5099 H0G6 25.278 1.057 6.089 hc 357 NIL_357    0.023
5100 H0G7 25.511 0.437 4.436 hc 357 NIL_357    0.023
5101 H0G8 26.862 0.467 5.567 hc 357 NIL_357    0.023
5102 C082 12.615 -4.247 0.086 c3 358 NIL_358    0.007
5103 C083 11.860 -5.040 -0.989 c3 358 NIL_358    0.105
5104 C084 13.706 -5.248 0.574 c3 358 NIL_358    0.131
5105 N01X 12.918 -5.732 -1.694 n 358 NIL_358   -0.285
5106 C085 10.905 -4.224 -1.826 c 358 NIL_358    0.510
5107 C086 13.793 -6.255 -0.632 c3 358 NIL_358    0.046
5108 C087 13.049 -5.943 1.781 c 358 NIL_358    0.510
5109 N01Y 14.993 -4.532 0.929 n 358 NIL_358   -0.284
5110 O01U 9.931 -3.724 -1.295 o 358 NIL_358   -0.549
5111 O01V 12.261 -6.865 1.676 o 358 NIL_358   -0.544
5112 H0A1 14.800 -6.418 -1.002 h1 358 NIL_358    0.050
5113 H0A2 13.421 -7.243 -0.352 h1 358 NIL_358    0.050
5114 H0A3 11.239 -5.796 -0.502 h1 358 NIL_358    0.061
5115 H0A4 13.053 -3.348 -0.352 hc 358 NIL_358    0.032
5116 H0A5 11.947 -3.925 0.889 hc 358 NIL_358    0.032
5117 C07J 14.967 -5.692 13.161 c 359 NIL_359    0.510
5118 C07K 16.183 -6.053 13.995 c3 359 NIL_359    0.092
5119 O01O 13.914 -5.296 13.623 o 359 NIL_359   -0.557
5120 H09I 16.321 -7.135 13.933 h1 359 NIL_359    0.057
5121 H09J 17.046 -5.609 13.492 h1 359 NIL_359    0.057
5122 C08N 15.298 4.316 5.203 c3 360 NIL_360    0.007
5123 C08O 15.174 4.962 3.810 c3 360 NIL_360    0.105
5124 C08P 13.875 4.422 5.825 c3 360 NIL_360    0.131
5125 N023 13.811 4.696 3.387 n 360 NIL_360   -0.285
5126 C08Q 16.249 4.534 2.837 c 360 NIL_360    0.510
5127 C08R 12.954 4.605 4.581 c3 360 NIL_360    0.046
5128 N024 13.744 5.560 6.808 n 360 NIL_360   -0.284
5129 C08S 13.510 3.047 6.404 c 360 NIL_360    0.510
5130 O020 17.396 4.404 3.223 o 360 NIL_360   -0.549
5131 O021 13.533 2.029 5.737 o 360 NIL_360   -0.547
5132 H0AO 12.274 3.756 4.458 h1 360 NIL_360    0.050
5133 H0AP 12.336 5.498 4.673 h1 360 NIL_360    0.050
5134 H0AQ 15.274 6.046 3.885 h1 360 NIL_360    0.061
5135 H0AR 15.592 3.272 5.068 hc 360 NIL_360    0.032
5136 H0AS 16.071 4.785 5.816 hc 360 NIL_360    0.032
5137 C1Z5 17.826 51.178 15.353 c3 361 NIL_361   -0.052
5138 C1Z6 19.020 50.699 16.205 c3 361 NIL_361   -0.004
5139 H2HZ 19.929 50.722 15.597 h1 361 NIL_361    0.043
5140 H2I0 19.132 51.418 17.017 h1 361 NIL_361    0.043
5141 H2I1 16.920 51.231 15.961 hc 361 NIL_361    0.024
5142 H2I2 17.640 50.514 14.506 hc 361 NIL_361    0.024
5143 H2I3 18.030 52.176 14.959 hc 361 NIL_361    0.024
5144 C1X9 21.450 39.057 -8.570 c3 362 NIL_362    0.131
5145 C1XA 20.108 39.286 -9.336 c3 362 NIL_362    0.007
5146 C1XB 22.365 38.446 -9.677 c3 362 NIL_362    0.046
5147 N0GZ 22.013 40.315 -7.955 n 362 NIL_362   -0.284
5148 C1XC 21.110 37.965 -7.543 c 362 NIL_362    0.510
5149 C1XD 20.184 38.232 -10.452 c3 362 NIL_362    0.105
5150 N0H0 21.558 38.350 -10.902 n 362 NIL_362   -0.285
5151 O0G3 21.030 36.784 -7.830 o 362 NIL_362   -0.544
5152 C1XE 19.138 38.269 -11.544 c 362 NIL_362    0.510
5153 O0G4 17.954 38.337 -11.281 o 362 NIL_362   -0.549
5154 H2F3 20.064 37.235 -10.019 h1 362 NIL_362    0.061
5155 H2F4 23.251 39.041 -9.855 h1 362 NIL_362    0.050
5156 H2F5 22.713 37.446 -9.408 h1 362 NIL_362    0.050
5157 H2F6 20.051 40.285 -9.774 hc 362 NIL_362    0.032
5158 H2F7 19.235 39.141 -8.694 hc 362 NIL_362    0.032
5159 C1U8 23.529 47.908 -3.604 c3 363 NIL_363    0.131
5160 C1U9 24.915 47.623 -4.268 c3 363 NIL_363    0.007
5161 C1UA 22.544 47.561 -4.758 c3 363 NIL_363    0.046
5162 N0G2 23.358 49.345 -3.152 n 363 NIL_363   -0.284
5163 C1UB 23.241 46.872 -2.500 c 363 NIL_363    0.510
5164 C1UC 24.680 47.850 -5.775 c3 363 NIL_363    0.105
5165 N0G3 23.300 47.470 -6.015 n 363 NIL_363   -0.285
5166 O0F8 23.559 45.701 -2.606 o 363 NIL_363   -0.544
5167 C1UD 25.669 47.210 -6.721 c 363 NIL_363    0.510
5168 O0F9 26.806 46.961 -6.362 o 363 NIL_363   -0.549
5169 H2C0 24.753 48.911 -6.013 h1 363 NIL_363    0.061
5170 H2C1 22.066 46.591 -4.591 h1 363 NIL_363    0.050
5171 H2C2 21.759 48.317 -4.843 h1 363 NIL_363    0.050
5172 H2C3 25.218 46.582 -4.136 hc 363 NIL_363    0.032
5173 H2C4 25.720 48.243 -3.869 hc 363 NIL_363    0.032
5174 C1ZA 34.036 43.171 5.483 c3 364 NIL_364   -0.064
5175 C1ZB 33.677 41.753 5.962 c3 364 NIL_364   -0.040
5176 C1ZC 32.169 41.413 5.839 c3 364 NIL_364    0.015
5177 H2IB 31.969 41.317 4.775 h1 364 NIL_364    0.047
5178 H2IC 32.003 40.430 6.290 h1 364 NIL_364    0.047
5179 H2ID 34.240 41.033 5.362 hc 364 NIL_364    0.028
5180 H2IE 34.017 41.626 6.991 hc 364 NIL_364    0.028
5181 H2IF 33.528 43.925 6.089 hc 364 NIL_364    0.023
5182 H2IG 33.761 43.305 4.436 hc 364 NIL_364    0.023
5183 H2IH 35.112 43.335 5.567 hc 364 NIL_364    0.023
5184 N0H1 17.635 41.957 17.143 n 365 NIL_365   -0.298
5185 C1XF 18.758 42.570 17.883 c3 365 NIL_365    0.129
5186 H2F8 16.974 42.586 16.712 hn 365 NIL_365    0.151
5187 C1XG 19.934 42.815 16.903 c3 365 NIL_365    0.006
5188 C1XH 18.337 43.991 18.340 c3 365 NIL_365    0.045
5189 C1XI 19.242 41.681 19.037 c 365 NIL_365    0.510
5190 C1XJ 20.116 44.339 16.804 c3 365 NIL_365    0.105
5191 N0H2 18.926 44.942 17.394 n 365 NIL_365   -0.285
5192 O0G5 19.771 42.121 20.040 o 365 NIL_365   -0.545
5193 C1XK 20.404 44.849 15.402 c 365 NIL_365    0.510
5194 O0G6 21.012 44.171 14.594 o 365 NIL_365   -0.549
5195 H2F9 20.970 44.631 17.422 h1 365 NIL_365    0.061
5196 H2FA 17.248 44.094 18.363 h1 365 NIL_365    0.050
5197 H2FB 18.735 44.223 19.331 h1 365 NIL_365    0.050
5198 H2FC 19.703 42.389 15.922 hc 365 NIL_365    0.032
5199 H2FD 20.862 42.351 17.248 hc 365 NIL_365    0.032
5200 C1TK 21.755 46.251 -16.756 c2 366 NIL_366    0.037
5201 C1TL 22.748 47.272 -16.607 c 366 NIL_366    0.510
5202 C1TM 20.790 45.998 -15.857 c2 366 NIL_366   -0.049
5203 C1TN 21.831 45.457 -17.834 c2 366 NIL_366   -0.049
5204 O0F3 23.161 47.774 -17.639 o 366 NIL_366   -0.535
5205 C1TO 19.949 44.974 -16.026 c2 366 NIL_366   -0.057
5206 C1TP 20.995 44.434 -17.995 c2 366 NIL_366   -0.057
5207 C1TQ 20.051 44.173 -17.088 c2 366 NIL_366   -0.031
5208 C1TR 19.129 42.984 -17.271 c3 366 NIL_366    0.036
5209 N0FX 19.331 41.853 -16.356 n 366 NIL_366   -0.310
5210 C1TS 20.509 41.230 -16.113 c 366 NIL_366    0.510
5211 C1TT 20.367 39.920 -15.348 c3 366 NIL_366    0.105
5212 O0F4 21.583 41.676 -16.472 o 366 NIL_366   -0.553
5213 N0FY 21.340 38.856 -15.678 n 366 NIL_366   -0.283
5214 C1TU 20.508 40.153 -13.832 c3 366 NIL_366    0.007
5215 C1TV 21.629 38.121 -14.436 c3 366 NIL_366    0.046
5216 C1TW 20.873 38.770 -13.243 c3 366 NIL_366    0.131
5217 N0FZ 19.601 38.105 -12.813 n 366 NIL_366   -0.284
5218 C1TX 21.889 38.903 -12.094 c 366 NIL_366    0.510
5219 C1TY 18.708 37.555 -13.863 c3 366 NIL_366    0.015
5220 O0F5 22.961 39.459 -12.238 o 366 NIL_366   -0.544
5221 C1TZ 18.295 36.088 -13.605 c3 366 NIL_366   -0.040
5222 C1U0 19.488 35.114 -13.611 c3 366 NIL_366   -0.064
5223 H2B8 20.247 35.412 -12.885 hc 366 NIL_366    0.023
5224 H2B9 19.947 35.074 -14.600 hc 366 NIL_366    0.023
5225 H2BA 19.148 34.110 -13.348 hc 366 NIL_366    0.023
5226 H2BB 17.584 35.784 -14.375 hc 366 NIL_366    0.028
5227 H2BC 17.775 36.013 -12.648 hc 366 NIL_366    0.028
5228 H2BD 19.182 37.583 -14.842 h1 366 NIL_366    0.047
5229 H2BE 17.812 38.181 -13.912 h1 366 NIL_366    0.047
5230 H2BF 22.700 38.196 -14.251 h1 366 NIL_366    0.050
5231 H2BG 21.359 37.067 -14.555 h1 366 NIL_366    0.050
5232 H2BH 21.311 40.873 -13.649 hc 366 NIL_366    0.032
5233 H2BI 19.589 40.559 -13.403 hc 366 NIL_366    0.032
5234 H2BJ 19.369 39.534 -15.568 h1 366 NIL_366    0.061
5235 H2BK 18.095 43.318 -17.161 h1 366 NIL_366    0.052
5236 H2BL 19.231 42.597 -18.289 h1 366 NIL_366    0.052
5237 H2BM 21.103 43.797 -18.869 ha 366 NIL_366    0.063
5238 H2BN 19.181 44.785 -15.279 ha 366 NIL_366    0.063
5239 H2BO 22.607 45.604 -18.582 ha 366 NIL_366    0.063
5240 H2BP 20.650 46.618 -14.982 ha 366 NIL_366    0.063
5241 H2BQ 18.491 41.431 -15.988 hn 366 NIL_366    0.150
5242 C1WU 29.898 43.376 9.836 c3 367 NIL_367   -0.010
5243 C1WV 30.339 43.684 8.383 c3 367 NIL_367    0.101
5244 C1WW 30.993 43.731 10.865 c3 367 NIL_367    0.013
5245 C1WX 31.263 42.623 7.797 c 367 NIL_367    0.510
5246 N0GT 29.176 43.994 7.557 n 367 NIL_367   -0.302
5247 N0GU 30.578 43.406 12.232 n 367 NIL_367   -0.314
5248 O0FZ 32.036 42.014 8.513 o 367 NIL_367   -0.550
5249 H2EK 31.910 43.176 10.658 h1 367 NIL_367    0.047
5250 H2EL 31.220 44.797 10.793 h1 367 NIL_367    0.047
5251 H2EM 30.931 44.602 8.399 h1 367 NIL_367    0.061
5252 H2EN 29.621 42.323 9.924 hc 367 NIL_367    0.031
5253 H2EO 29.006 43.962 10.080 hc 367 NIL_367    0.031
5254 H2EP 30.584 42.432 12.492 hn 367 NIL_367    0.149
5255 H2EQ 28.459 44.553 7.993 hn 367 NIL_367    0.150
5256 O0FK 31.330 46.889 17.808 o 368 NIL_368   -0.545
5257 C1VB 30.413 46.319 17.246 c 368 NIL_368    0.510
5258 C1VC 30.599 44.994 16.485 c3 368 NIL_368    0.128
5259 C1VD 30.723 43.852 17.516 c3 368 NIL_368    0.003
5260 C1VE 32.024 44.995 15.857 c3 368 NIL_368    0.029
5261 N0GE 29.483 44.703 15.517 n 368 NIL_368   -0.275
5262 C1VF 32.186 43.863 18.023 c3 368 NIL_368    0.090
5263 N0GF 32.948 44.488 16.899 n3 368 NIL_368   -0.290
5264 C1VG 32.646 42.536 18.640 c 368 NIL_368    0.510
5265 O0FL 33.815 42.249 18.816 o 368 NIL_368   -0.557
5266 H2D2 32.219 44.571 18.857 h1 368 NIL_368    0.057
5267 H2D3 32.088 44.335 14.998 h1 368 NIL_368    0.046
5268 H2D4 32.319 45.996 15.528 h1 368 NIL_368    0.046
5269 H2D5 30.526 42.900 17.020 hc 368 NIL_368    0.032
5270 H2D6 30.003 43.957 18.332 hc 368 NIL_368    0.032
5271 C1U1 23.217 37.176 13.161 c 369 NIL_369    0.510
5272 C1U2 24.433 36.815 13.995 c3 369 NIL_369    0.092
5273 O0F6 22.164 37.572 13.623 o 369 NIL_369   -0.557
5274 H2BR 24.571 35.733 13.933 h1 369 NIL_369    0.057
5275 H2BS 25.296 37.259 13.492 h1 369 NIL_369    0.057
5276 C1YK 23.938 50.429 -4.000 c3 370 NIL_370    0.015
5277 C1YL 22.973 50.958 -5.085 c3 370 NIL_370   -0.040
5278 C1YM 23.629 52.089 -5.895 c3 370 NIL_370   -0.064
5279 H2GT 22.922 52.485 -6.628 hc 370 NIL_370    0.023
5280 H2GU 24.507 51.717 -6.428 hc 370 NIL_370    0.023
5281 H2GV 23.939 52.907 -5.240 hc 370 NIL_370    0.023
5282 H2GW 22.060 51.331 -4.613 hc 370 NIL_370    0.028
5283 H2GX 22.683 50.163 -5.772 hc 370 NIL_370    0.028
5284 H2GY 24.883 50.134 -4.449 h1 370 NIL_370    0.047
5285 H2GZ 24.203 51.271 -3.352 h1 370 NIL_370    0.047
5286 C1ZD 24.839 41.671 -7.753 c3 371 NIL_371   -0.064
5287 C1ZE 24.065 41.477 -9.072 c3 371 NIL_371   -0.040
5288 C1ZF 22.523 41.339 -8.917 c3 371 NIL_371    0.015
5289 H2II 22.123 42.313 -8.622 h1 371 NIL_371    0.047
5290 H2IJ 22.114 41.138 -9.909 h1 371 NIL_371    0.047
5291 H2IK 24.260 42.341 -9.711 hc 371 NIL_371    0.028
5292 H2IL 24.481 40.622 -9.602 hc 371 NIL_371    0.028
5293 H2IM 25.908 41.749 -7.965 hc 371 NIL_371    0.023
5294 H2IN 24.693 40.822 -7.081 hc 371 NIL_371    0.023
5295 H2IO 24.523 42.584 -7.245 hc 371 NIL_371    0.023
5296 C1T3 28.196 39.732 -16.369 c 372 NIL_372    0.510
5297 C1T4 29.344 40.249 -15.513 c3 372 NIL_372    0.105
5298 O0F0 27.271 40.436 -16.727 o 372 NIL_372   -0.553
5299 N0FU 28.288 38.417 -16.683 n 372 NIL_372   -0.310
5300 N0FV 29.556 41.713 -15.566 n 372 NIL_372   -0.283
5301 C1T5 29.122 39.866 -14.032 c3 372 NIL_372    0.007
5302 C1T6 27.434 37.694 -17.637 c3 372 NIL_372    0.036
5303 C1T7 29.693 42.202 -14.191 c3 372 NIL_372    0.046
5304 C1T8 29.755 41.017 -13.202 c3 372 NIL_372    0.131
5305 C1T9 25.937 37.878 -17.471 c2 372 NIL_372   -0.031
5306 N0FW 31.184 40.752 -12.782 n 372 NIL_372   -0.284
5307 C1TA 28.825 41.436 -12.049 c 372 NIL_372    0.510
5308 C1TB 25.252 37.212 -16.538 c2 372 NIL_372   -0.057
5309 C1TC 25.277 38.732 -18.254 c2 372 NIL_372   -0.057
5310 C1TD 32.078 40.036 -13.742 c3 372 NIL_372    0.015
5311 O0F1 27.611 41.400 -12.136 o 372 NIL_372   -0.544
5312 C1TE 23.945 37.425 -16.366 c2 372 NIL_372   -0.049
5313 C1TF 23.974 38.949 -18.082 c2 372 NIL_372   -0.049
5314 C1TG 32.927 40.964 -14.642 c3 372 NIL_372   -0.040
5315 C1TH 23.285 38.319 -17.120 c2 372 NIL_372    0.037
5316 C1TI 33.718 40.146 -15.683 c3 372 NIL_372   -0.064
5317 C1TJ 21.921 38.704 -16.906 c 372 NIL_372    0.510
5318 O0F2 21.289 39.039 -17.892 o 372 NIL_372   -0.535
5319 H2AP 34.374 39.423 -15.192 hc 372 NIL_372    0.023
5320 H2AQ 34.335 40.805 -16.298 hc 372 NIL_372    0.023
5321 H2AR 33.039 39.602 -16.344 hc 372 NIL_372    0.023
5322 H2AS 33.627 41.536 -14.028 hc 372 NIL_372    0.028
5323 H2AT 32.297 41.680 -15.171 hc 372 NIL_372    0.028
5324 H2AU 23.497 39.694 -18.715 ha 372 NIL_372    0.063
5325 H2AV 23.440 36.845 -15.605 ha 372 NIL_372    0.063
5326 H2AW 31.528 39.345 -14.372 h1 372 NIL_372    0.047
5327 H2AX 32.765 39.406 -13.167 h1 372 NIL_372    0.047
5328 H2AY 25.808 39.291 -19.020 ha 372 NIL_372    0.063
5329 H2AZ 25.765 36.503 -15.890 ha 372 NIL_372    0.063
5330 H2B0 28.818 42.822 -13.976 h1 372 NIL_372    0.050
5331 H2B1 30.599 42.807 -14.096 h1 372 NIL_372    0.050
5332 H2B2 27.676 36.632 -17.554 h1 372 NIL_372    0.052
5333 H2B3 27.728 38.012 -18.639 h1 372 NIL_372    0.052
5334 H2B4 28.047 39.790 -13.856 hc 372 NIL_372    0.032
5335 H2B5 29.534 38.885 -13.783 hc 372 NIL_372    0.032
5336 H2B6 30.253 39.774 -15.887 h1 372 NIL_372    0.061
5337 H2B7 29.076 37.904 -16.317 hn 372 NIL_372    0.150
5338 C1YQ 25.944 47.736 -0.186 c3 373 NIL_373   -0.040
5339 C1YR 25.169 46.656 0.593 c3 373 NIL_373    0.015
5340 C1YS 27.088 47.096 -0.995 c3 373 NIL_373   -0.064
5341 H2H7 27.619 47.856 -1.573 hc 373 NIL_373    0.023
5342 H2H8 26.696 46.347 -1.688 hc 373 NIL_373    0.023
5343 H2H9 27.805 46.610 -0.329 hc 373 NIL_373    0.023
5344 H2HA 24.759 45.945 -0.118 h1 373 NIL_373    0.047
5345 H2HB 25.903 46.088 1.171 h1 373 NIL_373    0.047
5346 H2HC 26.357 48.471 0.509 hc 373 NIL_373    0.028
5347 H2HD 25.279 48.259 -0.873 hc 373 NIL_373    0.028
5348 C1T0 25.019 39.733 -2.268 c3 374 NIL_374   -0.064
5349 C1T1 23.881 39.558 -1.244 c3 374 NIL_374   -0.040
5350 C1T2 24.262 38.537 -0.149 c3 374 NIL_374    0.015
5351 H2AI 24.536 37.587 -0.603 h1 374 NIL_374    0.047
5352 H2AJ 25.191 38.895 0.300 h1 374 NIL_374    0.047
5353 H2AK 23.637 40.520 -0.790 hc 374 NIL_374    0.028
5354 H2AL 22.994 39.232 -1.777 hc 374 NIL_374    0.028
5355 H2AM 25.924 40.112 -1.793 hc 374 NIL_374    0.023
5356 H2AN 24.722 40.439 -3.046 hc 374 NIL_374    0.023
5357 H2AO 25.257 38.778 -2.742 hc 374 NIL_374    0.023
5358 C1V2 20.345 51.089 6.444 c3 375 NIL_375   -0.064
5359 C1V3 21.607 50.725 5.641 c3 375 NIL_375   -0.040
5360 C1V4 22.549 49.755 6.393 c3 375 NIL_375    0.015
5361 H2CQ 23.446 49.626 5.793 h1 375 NIL_375    0.047
5362 H2CR 22.900 50.274 7.289 h1 375 NIL_375    0.047
5363 H2CS 21.330 50.320 4.668 hc 375 NIL_375    0.028
5364 H2CT 22.161 51.644 5.438 hc 375 NIL_375    0.028
5365 H2CU 19.732 50.205 6.629 hc 375 NIL_375    0.023
5366 H2CV 19.746 51.814 5.890 hc 375 NIL_375    0.023
5367 H2CW 20.614 51.538 7.404 hc 375 NIL_375    0.023
5368 C1YA 22.329 46.520 -0.170 c3 376 NIL_376    0.046
5369 C1YB 22.748 47.452 1.013 c3 376 NIL_376    0.131
5370 N0H9 22.577 47.285 -1.396 n 376 NIL_376   -0.285
5371 C1YC 22.689 48.864 0.361 c3 376 NIL_376    0.007
5372 C1YD 21.659 47.436 2.102 c 376 NIL_376    0.510
5373 N0HA 24.136 47.169 1.543 n 376 NIL_376   -0.284
5374 C1YE 22.197 48.646 -1.082 c3 376 NIL_376    0.105
5375 O0GC 20.475 47.330 1.844 o 376 NIL_376   -0.544
5376 C1YF 22.685 49.716 -2.026 c 376 NIL_376    0.510
5377 O0GD 22.469 50.883 -1.754 o 376 NIL_376   -0.549
5378 H2GH 21.104 48.692 -1.105 h1 376 NIL_376    0.061
5379 H2GI 23.675 49.333 0.359 hc 376 NIL_376    0.032
5380 H2GJ 22.015 49.545 0.887 hc 376 NIL_376    0.032
5381 H2GK 22.838 45.556 -0.158 h1 376 NIL_376    0.050
5382 H2GL 21.258 46.309 -0.149 h1 376 NIL_376    0.050
5383 N0GP 19.376 38.741 -3.167 n 377 NIL_377   -0.284
5384 C1WI 20.649 38.289 -3.844 c3 377 NIL_377    0.131
5385 C1WJ 21.461 39.528 -4.329 c3 377 NIL_377    0.007
5386 C1WK 20.426 37.502 -5.173 c3 377 NIL_377    0.046
5387 C1WL 21.555 37.407 -2.964 c 377 NIL_377    0.510
5388 C1WM 21.009 39.713 -5.787 c3 377 NIL_377    0.105
5389 N0GQ 20.870 38.361 -6.280 n 377 NIL_377   -0.285
5390 O0FV 22.608 36.963 -3.385 o 377 NIL_377   -0.544
5391 C1WN 21.815 40.657 -6.648 c 377 NIL_377    0.510
5392 O0FW 22.212 41.707 -6.179 o 377 NIL_377   -0.549
5393 H2EA 20.018 40.153 -5.803 h1 377 NIL_377    0.061
5394 H2EB 21.004 36.573 -5.196 h1 377 NIL_377    0.050
5395 H2EC 19.377 37.235 -5.310 h1 377 NIL_377    0.050
5396 H2ED 22.536 39.329 -4.320 hc 377 NIL_377    0.032
5397 H2EE 21.288 40.413 -3.716 hc 377 NIL_377    0.032
5398 C1V5 23.548 47.184 5.203 c3 378 NIL_378    0.007
5399 C1V6 23.424 47.830 3.810 c3 378 NIL_378    0.105
5400 C1V7 22.125 47.290 5.825 c3 378 NIL_378    0.131
5401 N0GC 22.061 47.564 3.387 n 378 NIL_378   -0.285
5402 C1V8 24.499 47.402 2.837 c 378 NIL_378    0.510
5403 C1V9 21.204 47.473 4.581 c3 378 NIL_378    0.046
5404 N0GD 21.994 48.428 6.808 n 378 NIL_378   -0.284
5405 C1VA 21.760 45.915 6.404 c 378 NIL_378    0.510
5406 O0FI 25.646 47.272 3.223 o 378 NIL_378   -0.549
5407 O0FJ 21.783 44.897 5.737 o 378 NIL_378   -0.547
5408 H2CX 20.524 46.624 4.458 h1 378 NIL_378    0.050
5409 H2CY 20.586 48.366 4.673 h1 378 NIL_378    0.050
5410 H2CZ 23.524 48.914 3.885 h1 378 NIL_378    0.061
5411 H2D0 23.842 46.140 5.068 hc 378 NIL_378    0.032
5412 H2D1 24.321 47.653 5.816 hc 378 NIL_378    0.032
5413 C1YY 17.235 41.450 -4.974 c3 379 NIL_379   -0.064
5414 C1YZ 18.217 40.884 -3.931 c3 379 NIL_379   -0.040
5415 C1Z0 18.310 39.341 -4.024 c3 379 NIL_379    0.015
5416 H2HL 17.348 38.917 -3.720 h1 379 NIL_379    0.047
5417 H2HM 18.438 39.069 -5.071 h1 379 NIL_379    0.047
5418 H2HN 19.195 41.339 -4.089 hc 379 NIL_379    0.028
5419 H2HO 17.888 41.179 -2.932 hc 379 NIL_379    0.028
5420 H2HP 16.235 41.031 -4.840 hc 379 NIL_379    0.023
5421 H2HQ 17.572 41.223 -5.989 hc 379 NIL_379    0.023
5422 H2HR 17.166 42.534 -4.872 hc 379 NIL_379    0.023
5423 C1Z1 21.151 47.039 13.117 c 380 NIL_380    0.510
5424 C1Z2 19.845 46.492 13.661 c3 380 NIL_380    0.092
5425 O0GG 22.052 47.445 13.826 o 380 NIL_380   -0.557
5426 H2HS 19.053 47.212 13.459 h1 380 NIL_380    0.057
5427 H2HT 19.604 45.609 13.062 h1 380 NIL_380    0.057
5428 C1VN 30.462 42.762 -5.009 c3 381 NIL_381    0.046
5429 C1VO 30.372 41.805 -3.786 c3 381 NIL_381    0.131
5430 N0GI 30.023 42.030 -6.201 n 381 NIL_381   -0.285
5431 C1VP 29.609 40.570 -4.358 c3 381 NIL_381    0.007
5432 N0GJ 31.734 41.432 -3.240 n 381 NIL_381   -0.284
5433 C1VQ 29.464 42.552 -2.793 c 381 NIL_381    0.510
5434 C1VR 29.871 40.625 -5.873 c3 381 NIL_381    0.105
5435 O0FO 28.295 42.786 -3.044 o 381 NIL_381   -0.544
5436 C1VS 28.884 39.884 -6.745 c 381 NIL_381    0.510
5437 O0FP 28.269 38.927 -6.312 o 381 NIL_381   -0.549
5438 H2DC 30.826 40.154 -6.107 h1 381 NIL_381    0.061
5439 H2DD 28.533 40.645 -4.188 hc 381 NIL_381    0.032
5440 H2DE 29.936 39.625 -3.916 hc 381 NIL_381    0.032
5441 H2DF 29.801 43.626 -4.891 h1 381 NIL_381    0.050
5442 H2DG 31.477 43.140 -5.143 h1 381 NIL_381    0.050
5443 C1Y1 29.444 37.466 -9.057 c3 382 NIL_382   -0.064
5444 C1Y2 28.705 38.538 -9.881 c3 382 NIL_382   -0.040
5445 C1Y3 27.924 39.536 -8.992 c3 382 NIL_382    0.015
5446 H2FW 27.331 40.177 -9.638 h1 382 NIL_382    0.047
5447 H2FX 27.186 38.958 -8.430 h1 382 NIL_382    0.047
5448 H2FY 29.409 39.060 -10.530 hc 382 NIL_382    0.028
5449 H2FZ 27.995 38.042 -10.545 hc 382 NIL_382    0.028
5450 H2G0 29.904 36.733 -9.723 hc 382 NIL_382    0.023
5451 H2G1 28.748 36.939 -8.400 hc 382 NIL_382    0.023
5452 H2G2 30.229 37.912 -8.442 hc 382 NIL_382    0.023
5453 C1UW 29.856 42.549 -7.434 c 383 NIL_383    0.510
5454 C1UX 29.472 41.555 -8.542 c3 383 NIL_383    0.131
5455 O0FG 30.056 43.733 -7.635 o 383 NIL_383   -0.544
5456 C1UY 30.827 41.171 -9.206 c3 383 NIL_383    0.007
5457 C1UZ 28.717 42.298 -9.689 c3 383 NIL_383    0.046
5458 N0GA 28.747 40.330 -8.027 n 383 NIL_383   -0.284
5459 C1V0 30.808 41.839 -10.589 c3 383 NIL_383    0.105
5460 N0GB 29.401 41.914 -10.925 n 383 NIL_383   -0.285
5461 C1V1 31.706 41.144 -11.585 c 383 NIL_383    0.510
5462 O0FH 32.873 40.953 -11.299 o 383 NIL_383   -0.549
5463 H2CL 31.176 42.866 -10.501 h1 383 NIL_383    0.061
5464 H2CM 27.647 42.092 -9.711 h1 383 NIL_383    0.050
5465 H2CN 28.817 43.383 -9.605 h1 383 NIL_383    0.050
5466 H2CO 30.926 40.091 -9.303 hc 383 NIL_383    0.032
5467 H2CP 31.694 41.511 -8.634 hc 383 NIL_383    0.032
5468 C1ZG 29.760 43.691 14.469 c3 384 NIL_384    0.092
5469 C1ZH 30.169 44.308 13.147 c 384 NIL_384    0.510
5470 O0GH 30.130 45.504 12.923 o 384 NIL_384   -0.557
5471 H2IP 28.864 43.095 14.274 h1 384 NIL_384    0.057
5472 H2IQ 30.541 42.994 14.781 h1 384 NIL_384    0.057
5473 C1UE 22.633 36.232 5.917 c 385 NIL_385    0.510
5474 C1UF 21.935 37.498 5.412 c3 385 NIL_385    0.131
5475 O0FA 23.235 35.482 5.172 o 385 NIL_385   -0.547
5476 C1UG 22.999 38.367 4.671 c3 385 NIL_385    0.007
5477 C1UH 20.988 37.020 4.274 c3 385 NIL_385    0.046
5478 N0G4 21.219 38.276 6.479 n 385 NIL_385   -0.284
5479 C1UI 22.445 38.566 3.247 c3 385 NIL_385    0.105
5480 N0G5 21.599 37.417 3.001 n 385 NIL_385   -0.285
5481 C1UJ 23.489 38.819 2.183 c 385 NIL_385    0.510
5482 O0FB 24.506 39.423 2.464 o 385 NIL_385   -0.549
5483 H2C5 21.797 39.444 3.221 h1 385 NIL_385    0.061
5484 H2C6 20.839 35.936 4.299 h1 385 NIL_385    0.050
5485 H2C7 20.011 37.499 4.344 h1 385 NIL_385    0.050
5486 H2C8 23.961 37.851 4.615 hc 385 NIL_385    0.032
5487 H2C9 23.182 39.325 5.163 hc 385 NIL_385    0.032
5488 O0FS 29.782 41.831 -17.753 o 386 NIL_386   -0.535
5489 C1W1 29.561 42.445 -16.724 c 386 NIL_386    0.510
5490 C1W2 29.256 43.846 -16.876 c2 386 NIL_386    0.037
5491 C1W3 28.807 44.279 -18.067 c2 386 NIL_386   -0.049
5492 C1W4 29.319 44.756 -15.885 c2 386 NIL_386   -0.049
5493 C1W5 28.407 45.537 -18.249 c2 386 NIL_386   -0.057
5494 C1W6 28.921 46.016 -16.070 c2 386 NIL_386   -0.057
5495 C1W7 28.445 46.418 -17.247 c2 386 NIL_386   -0.031
5496 C1W8 27.908 47.824 -17.442 c3 386 NIL_386    0.036
5497 N0GM 26.819 48.203 -16.531 n 386 NIL_386   -0.310
5498 C1W9 25.730 47.452 -16.244 c 386 NIL_386    0.510
5499 C1WA 24.723 48.142 -15.334 c3 386 NIL_386    0.105
5500 O0FT 25.582 46.317 -16.659 o 386 NIL_386   -0.553
5501 N0GN 23.337 47.641 -15.431 n 386 NIL_386   -0.283
5502 C1WB 25.153 47.995 -13.858 c3 386 NIL_386    0.007
5503 C1WC 22.791 47.530 -14.072 c3 386 NIL_386    0.046
5504 C1WD 23.833 48.018 -13.033 c3 386 NIL_386    0.131
5505 N0GO 23.493 49.393 -12.499 n 386 NIL_386   -0.284
5506 C1WE 23.856 46.912 -11.959 c 386 NIL_386    0.510
5507 C1WF 23.709 50.566 -13.404 c3 386 NIL_386    0.015
5508 O0FU 24.338 45.812 -12.167 o 386 NIL_386   -0.544
5509 C1WG 22.550 50.923 -14.364 c3 386 NIL_386   -0.040
5510 C1WH 21.200 51.137 -13.651 c3 386 NIL_386   -0.064
5511 H2DR 20.452 51.484 -14.362 hc 386 NIL_386    0.023
5512 H2DS 21.295 51.887 -12.863 hc 386 NIL_386    0.023
5513 H2DT 20.837 50.207 -13.208 hc 386 NIL_386    0.023
5514 H2DU 22.433 50.159 -15.131 hc 386 NIL_386    0.028
5515 H2DV 22.815 51.845 -14.886 hc 386 NIL_386    0.028
5516 H2DW 24.619 50.453 -13.986 h1 386 NIL_386    0.047
5517 H2DX 23.900 51.450 -12.791 h1 386 NIL_386    0.047
5518 H2DY 22.541 46.480 -13.895 h1 386 NIL_386    0.050
5519 H2DZ 21.877 48.124 -13.989 h1 386 NIL_386    0.050
5520 H2E0 25.672 47.039 -13.751 hc 386 NIL_386    0.032
5521 H2E1 25.867 48.763 -13.551 hc 386 NIL_386    0.032
5522 H2E2 24.709 49.196 -15.619 h1 386 NIL_386    0.061
5523 H2E3 28.720 48.544 -17.316 h1 386 NIL_386    0.052
5524 H2E4 27.526 47.932 -18.461 h1 386 NIL_386    0.052
5525 H2E5 28.963 46.711 -15.234 ha 386 NIL_386    0.063
5526 H2E6 28.020 45.833 -19.219 ha 386 NIL_386    0.063
5527 H2E7 29.692 44.524 -14.901 ha 386 NIL_386    0.063
5528 H2E8 28.715 43.603 -18.914 ha 386 NIL_386    0.063
5529 H2E9 26.865 49.131 -16.138 hn 386 NIL_386    0.150
5530 C1Y7 33.517 41.241 -5.079 c3 387 NIL_387   -0.040
5531 C1Y8 32.593 40.528 -4.066 c3 387 NIL_387    0.015
5532 C1Y9 34.449 40.231 -5.774 c3 387 NIL_387   -0.064
5533 H2GA 35.052 39.688 -5.041 hc 387 NIL_387    0.023
5534 H2GB 35.127 40.748 -6.456 hc 387 NIL_387    0.023
5535 H2GC 33.869 39.507 -6.350 hc 387 NIL_387    0.023
5536 H2GD 32.005 39.770 -4.577 h1 387 NIL_387    0.047
5537 H2GE 33.237 39.951 -3.395 h1 387 NIL_387    0.047
5538 H2GF 34.119 41.991 -4.561 hc 387 NIL_387    0.028
5539 H2GG 32.935 41.750 -5.847 hc 387 NIL_387    0.028
5540 C1WO 23.635 48.653 -8.981 c3 388 NIL_388    0.007
5541 C1WP 22.857 48.472 -10.293 c3 388 NIL_388    0.105
5542 C1WQ 23.792 47.215 -8.404 c3 388 NIL_388    0.131
5543 N0GR 23.274 47.172 -10.770 n 388 NIL_388   -0.285
5544 C1WR 23.038 49.631 -11.235 c 388 NIL_388    0.510
5545 C1WS 23.287 46.314 -9.580 c3 388 NIL_388    0.046
5546 N0GS 25.224 46.955 -7.988 n 388 NIL_388   -0.284
5547 C1WT 22.800 47.165 -7.231 c 388 NIL_388    0.510
5548 O0FX 22.772 50.751 -10.839 o 388 NIL_388   -0.549
5549 O0FY 21.615 46.919 -7.361 o 388 NIL_388   -0.544
5550 H2EF 23.868 45.405 -9.721 h1 388 NIL_388    0.050
5551 H2EG 22.255 45.992 -9.426 h1 388 NIL_388    0.050
5552 H2EH 21.786 48.415 -10.077 h1 388 NIL_388    0.061
5553 H2EI 24.607 49.106 -9.182 hc 388 NIL_388    0.032
5554 H2EJ 23.103 49.331 -8.308 hc 388 NIL_388    0.032
5555 C1Y4 19.049 39.560 6.077 c3 389 NIL_389   -0.040
5556 C1Y5 20.593 39.552 6.032 c3 389 NIL_389    0.015
5557 C1Y6 18.510 40.963 5.742 c3 389 NIL_389   -0.064
5558 H2G3 18.834 41.275 4.746 hc 389 NIL_389    0.023
5559 H2G4 18.871 41.696 6.468 hc 389 NIL_389    0.023
5560 H2G5 17.418 40.968 5.767 hc 389 NIL_389    0.023
5561 H2G6 20.885 39.800 5.014 h1 389 NIL_389    0.047
5562 H2G7 20.971 40.357 6.670 h1 389 NIL_389    0.047
5563 H2G8 18.698 39.273 7.071 hc 389 NIL_389    0.028
5564 H2G9 18.641 38.841 5.364 hc 389 NIL_389    0.028
5565 C1XL 30.884 41.833 0.176 c3 390 NIL_390    0.007
5566 C1XM 31.283 42.592 -1.098 c3 390 NIL_390    0.105
5567 C1XN 29.670 42.622 0.747 c3 390 NIL_390    0.131
5568 N0H3 30.005 42.995 -1.637 n 390 NIL_390   -0.285
5569 C1XO 32.182 41.785 -2.002 c 390 NIL_390    0.510
5570 C1XP 29.254 43.502 -0.484 c3 390 NIL_390    0.046
5571 C1XQ 30.218 43.508 1.876 c 390 NIL_390    0.510
5572 N0H4 28.629 41.655 1.253 n 390 NIL_390   -0.284
5573 O0G7 33.288 41.476 -1.599 o 390 NIL_390   -0.549
5574 O0G8 30.698 44.610 1.690 o 390 NIL_390   -0.544
5575 H2FE 28.190 43.489 -0.686 h1 390 NIL_390    0.050
5576 H2FF 29.530 44.550 -0.349 h1 390 NIL_390    0.050
5577 H2FG 31.839 43.495 -0.830 h1 390 NIL_390    0.061
5578 H2FH 30.586 40.815 -0.091 hc 390 NIL_390    0.032
5579 H2FI 31.719 41.770 0.880 hc 390 NIL_390    0.032
5580 C1VT 34.249 43.950 16.418 c3 391 NIL_391   -0.004
5581 C1VU 34.124 42.633 15.619 c3 391 NIL_391   -0.052
5582 H2DH 35.118 42.269 15.355 hc 391 NIL_391    0.024
5583 H2DI 33.568 42.780 14.691 hc 391 NIL_391    0.024
5584 H2DJ 33.627 41.854 16.197 hc 391 NIL_391    0.024
5585 H2DK 34.922 43.805 17.264 h1 391 NIL_391    0.043
5586 H2DL 34.711 44.699 15.770 h1 391 NIL_391    0.043
5587 C1Z3 21.902 33.377 17.373 c3 392 NIL_392   -0.004
5588 C1Z4 21.812 32.260 16.315 c3 392 NIL_392   -0.052
5589 H2HU 21.750 31.286 16.805 hc 392 NIL_392    0.024
5590 H2HV 22.689 32.256 15.664 hc 392 NIL_392    0.024
5591 H2HW 20.920 32.390 15.699 hc 392 NIL_392    0.024
5592 H2HX 21.021 33.308 18.016 h1 392 NIL_392    0.043
5593 H2HY 22.790 33.221 17.993 h1 392 NIL_392    0.043
5594 H2FQ 28.288 36.763 16.851 hn 393 NIL_393    0.151
5595 N0H7 28.617 37.564 17.369 n 393 NIL_393   -0.298
5596 C1XV 27.688 38.148 18.361 c3 393 NIL_393    0.129
5597 C1XW 26.774 39.183 17.666 c3 393 NIL_393    0.006
5598 C1XX 26.696 37.059 18.827 c3 393 NIL_393    0.045
5599 C1XY 28.423 38.821 19.524 c 393 NIL_393    0.510
5600 C1XZ 25.486 38.426 17.283 c3 393 NIL_393    0.105
5601 N0H8 25.569 37.101 17.894 n 393 NIL_393   -0.285
5602 O0GA 27.943 38.934 20.636 o 393 NIL_393   -0.545
5603 C1Y0 25.168 38.328 15.797 c 393 NIL_393    0.510
5604 O0GB 25.603 39.133 14.995 o 393 NIL_393   -0.549
5605 H2FR 24.639 38.951 17.732 h1 393 NIL_393    0.061
5606 H2FS 27.167 36.071 18.827 h1 393 NIL_393    0.050
5607 H2FT 26.308 37.275 19.825 h1 393 NIL_393    0.050
5608 H2FU 27.269 39.655 16.815 hc 393 NIL_393    0.032
5609 H2FV 26.506 39.979 18.366 hc 393 NIL_393    0.032
5610 C1WY 24.351 49.200 19.561 c3 394 NIL_394    0.034
5611 C1WZ 23.223 50.127 19.068 c3 394 NIL_394    0.040
5612 N0GV 25.308 49.063 18.457 n 394 NIL_394   -0.286
5613 C1X0 23.923 50.951 17.976 c3 394 NIL_394   -0.005
5614 N0GW 22.116 49.344 18.504 n 394 NIL_394   -0.310
5615 C1X1 24.902 49.941 17.358 c3 394 NIL_394    0.104
5616 C1X2 26.073 50.545 16.606 c 394 NIL_394    0.510
5617 O0G0 26.000 51.598 16.005 o 394 NIL_394   -0.552
5618 H2ER 24.364 49.322 16.634 h1 394 NIL_394    0.061
5619 H2ES 23.226 51.357 17.238 hc 394 NIL_394    0.031
5620 H2ET 24.474 51.776 18.436 hc 394 NIL_394    0.031
5621 H2EU 22.857 50.764 19.879 h1 394 NIL_394    0.052
5622 H2EV 24.865 49.665 20.407 h1 394 NIL_394    0.049
5623 H2EW 23.964 48.222 19.861 h1 394 NIL_394    0.049
5624 H2EX 22.351 48.438 18.127 hn 394 NIL_394    0.150
5625 C1Z7 26.095 43.369 0.858 c3 395 NIL_395   -0.064
5626 C1Z8 26.166 41.835 0.778 c3 395 NIL_395   -0.040
5627 C1Z9 27.534 41.256 0.337 c3 395 NIL_395    0.015
5628 H2I4 27.461 40.164 0.349 h1 395 NIL_395    0.047
5629 H2I5 27.743 41.523 -0.698 h1 395 NIL_395    0.047
5630 H2I6 25.911 41.436 1.760 hc 395 NIL_395    0.028
5631 H2I7 25.397 41.496 0.090 hc 395 NIL_395    0.028
5632 H2I8 26.161 43.811 -0.137 hc 395 NIL_395    0.023
5633 H2I9 26.894 43.768 1.486 hc 395 NIL_395    0.023
5634 H2IA 25.140 43.671 1.295 hc 395 NIL_395    0.023
5635 C1XR 22.406 37.205 10.789 c3 396 NIL_396    0.013
5636 N0H5 23.415 37.006 11.835 n 396 NIL_396   -0.314
5637 C1XS 23.015 36.970 9.387 c3 396 NIL_396   -0.010
5638 C1XT 21.956 36.717 8.282 c3 396 NIL_396    0.101
5639 C1XU 21.284 38.000 7.815 c 396 NIL_396    0.510
5640 N0H6 22.553 35.911 7.220 n 396 NIL_396   -0.302
5641 O0G9 20.795 38.755 8.634 o 396 NIL_396   -0.550
5642 H2FJ 21.153 36.105 8.704 h1 396 NIL_396    0.061
5643 H2FK 23.658 37.810 9.110 hc 396 NIL_396    0.031
5644 H2FL 23.660 36.089 9.451 hc 396 NIL_396    0.031
5645 H2FM 22.008 38.220 10.862 h1 396 NIL_396    0.047
5646 H2FN 21.594 36.492 10.961 h1 396 NIL_396    0.047
5647 H2FO 22.991 35.052 7.517 hn 396 NIL_396    0.150
5648 H2FP 24.321 36.680 11.530 hn 396 NIL_396    0.149
5649 C1X3 30.585 43.655 4.354 c3 397 NIL_397    0.046
5650 C1X4 30.084 42.820 5.565 c3 397 NIL_397    0.131
5651 N0GX 30.147 42.992 3.124 n 397 NIL_397   -0.285
5652 C1X5 29.351 41.605 4.917 c3 397 NIL_397    0.007
5653 N0GY 31.208 42.373 6.458 n 397 NIL_397   -0.284
5654 C1X6 29.020 43.678 6.261 c 397 NIL_397    0.510
5655 C1X7 29.747 41.626 3.429 c3 397 NIL_397    0.105
5656 O0G1 28.037 44.095 5.677 o 397 NIL_397   -0.547
5657 C1X8 28.703 41.075 2.484 c 397 NIL_397    0.510
5658 O0G2 27.958 40.177 2.831 o 397 NIL_397   -0.549
5659 H2EY 30.624 40.993 3.276 h1 397 NIL_397    0.061
5660 H2EZ 28.266 41.704 5.002 hc 397 NIL_397    0.032
5661 H2F0 29.619 40.652 5.380 hc 397 NIL_397    0.032
5662 H2F1 30.187 44.673 4.377 h1 397 NIL_397    0.050
5663 H2F2 31.670 43.721 4.344 h1 397 NIL_397    0.050
5664 C1UK 20.865 38.621 0.086 c3 398 NIL_398    0.007
5665 C1UL 20.110 37.828 -0.989 c3 398 NIL_398    0.105
5666 C1UM 21.956 37.620 0.574 c3 398 NIL_398    0.131
5667 N0G6 21.168 37.136 -1.694 n 398 NIL_398   -0.285
5668 C1UN 19.155 38.644 -1.826 c 398 NIL_398    0.510
5669 C1UO 22.043 36.613 -0.632 c3 398 NIL_398    0.046
5670 C1UP 21.299 36.925 1.781 c 398 NIL_398    0.510
5671 N0G7 23.243 38.336 0.929 n 398 NIL_398   -0.284
5672 O0FC 18.181 39.144 -1.295 o 398 NIL_398   -0.549
5673 O0FD 20.511 36.003 1.676 o 398 NIL_398   -0.544
5674 H2CA 23.050 36.450 -1.002 h1 398 NIL_398    0.050
5675 H2CB 21.671 35.625 -0.352 h1 398 NIL_398    0.050
5676 H2CC 19.489 37.072 -0.502 h1 398 NIL_398    0.061
5677 H2CD 21.303 39.520 -0.352 hc 398 NIL_398    0.032
5678 H2CE 20.197 38.943 0.889 hc 398 NIL_398    0.032
5679 C1U3 30.287 39.242 17.925 c3 399 NIL_399    0.104
5680 N0G0 29.667 39.276 19.250 n 399 NIL_399   -0.286
5681 C1U4 31.798 39.376 18.175 c3 399 NIL_399   -0.005
5682 C1U5 29.847 38.054 17.092 c 399 NIL_399    0.510
5683 C1U6 30.633 39.802 20.223 c3 399 NIL_399    0.034
5684 C1U7 31.848 40.289 19.413 c3 399 NIL_399    0.040
5685 O0F7 30.546 37.546 16.239 o 399 NIL_399   -0.552
5686 N0G1 31.663 41.694 19.024 n 399 NIL_399   -0.310
5687 H2BT 32.780 40.171 19.975 h1 399 NIL_399    0.052
5688 H2BU 30.936 38.987 20.885 h1 399 NIL_399    0.049
5689 H2BV 30.192 40.611 20.813 h1 399 NIL_399    0.049
5690 H2BW 32.330 39.795 17.315 hc 399 NIL_399    0.031
5691 H2BX 32.230 38.403 18.420 hc 399 NIL_399    0.031
5692 H2BY 29.940 40.130 17.387 h1 399 NIL_399    0.061
5693 H2BZ 30.709 42.000 18.902 hn 399 NIL_399    0.150
5694 C1UQ 27.379 48.521 17.276 c3 400 NIL_400    0.129
5695 C1UR 27.091 47.413 16.246 c3 400 NIL_400    0.006
5696 C1US 28.858 48.248 17.652 c3 400 NIL_400    0.045
5697 N0G8 27.231 49.851 16.653 n 400 NIL_400   -0.298
5698 C1UT 26.438 48.318 18.468 c 400 NIL_400    0.510
5699 C1UU 27.982 46.250 16.696 c3 400 NIL_400    0.105
5700 N0G9 29.182 46.875 17.234 n 400 NIL_400   -0.285
5701 H2CF 28.042 50.231 16.188 hn 400 NIL_400    0.151
5702 O0FE 26.683 47.557 19.386 o 400 NIL_400   -0.545
5703 C1UV 28.230 45.227 15.613 c 400 NIL_400    0.510
5704 O0FF 27.336 44.908 14.852 o 400 NIL_400   -0.549
5705 H2CG 27.497 45.716 17.518 h1 400 NIL_400    0.061
5706 H2CH 29.516 48.933 17.109 h1 400 NIL_400    0.050
5707 H2CI 29.029 48.367 18.725 h1 400 NIL_400    0.050
5708 H2CJ 27.398 47.740 15.248 hc 400 NIL_400    0.032
5709 H2CK 26.035 47.134 16.207 hc 400 NIL_400    0.032
5710 C1YN 26.194 46.490 -9.030 c3 401 NIL_401    0.015
5711 C1YO 26.788 47.589 -9.945 c3 401 NIL_401   -0.040
5712 C1YP 27.591 48.640 -9.155 c3 401 NIL_401   -0.064
5713 H2H0 28.064 49.345 -9.843 hc 401 NIL_401    0.023
5714 H2H1 28.375 48.160 -8.565 hc 401 NIL_401    0.023
5715 H2H2 26.944 49.203 -8.479 hc 401 NIL_401    0.023
5716 H2H3 26.009 48.076 -10.532 hc 401 NIL_401    0.028
5717 H2H4 27.454 47.112 -10.666 hc 401 NIL_401    0.028
5718 H2H5 25.764 45.718 -9.663 h1 401 NIL_401    0.047
5719 H2H6 27.033 46.001 -8.532 h1 401 NIL_401    0.047
5720 O0FQ 20.488 50.836 18.870 o 402 NIL_402   -0.557
5721 C1VV 20.838 49.775 18.391 c 402 NIL_402    0.510
5722 C1VW 19.864 48.817 17.699 c3 402 NIL_402    0.090
5723 N0GK 18.825 49.327 16.754 n3 402 NIL_402   -0.290
5724 C1VX 20.527 47.656 16.931 c3 402 NIL_402    0.003
5725 C1VY 18.650 48.299 15.686 c3 402 NIL_402    0.029
5726 C1VZ 19.371 47.001 16.148 c3 402 NIL_402    0.128
5727 N0GL 19.914 46.082 15.088 n 402 NIL_402   -0.275
5728 C1W0 18.517 46.210 17.153 c 402 NIL_402    0.510
5729 O0FR 17.524 46.661 17.692 o 402 NIL_402   -0.545
5730 H2DM 19.141 48.689 14.792 h1 402 NIL_402    0.046
5731 H2DN 17.594 48.125 15.465 h1 402 NIL_402    0.046
5732 H2DO 21.272 48.053 16.237 hc 402 NIL_402    0.032
5733 H2DP 21.024 46.956 17.607 hc 402 NIL_402    0.032
5734 H2DQ 19.324 48.363 18.534 h1 402 NIL_402    0.057
5735 O0FM 24.829 35.008 18.159 o 403 NIL_403   -0.545
5736 C1VH 24.747 36.075 17.579 c 403 NIL_403    0.510
5737 C1VI 23.767 36.349 16.425 c3 403 NIL_403    0.128
5738 C1VJ 22.510 37.007 17.032 c3 403 NIL_403    0.003
5739 C1VK 23.143 35.014 15.913 c3 403 NIL_403    0.029
5740 N0GG 24.408 37.259 15.412 n 403 NIL_403   -0.275
5741 C1VL 21.769 35.842 17.709 c3 403 NIL_403    0.090
5742 N0GH 21.952 34.726 16.757 n3 403 NIL_403   -0.290
5743 C1VM 20.340 36.189 18.096 c 403 NIL_403    0.510
5744 O0FN 19.400 35.442 17.902 o 403 NIL_403   -0.557
5745 H2D7 22.289 35.608 18.643 h1 403 NIL_403    0.057
5746 H2D8 22.770 35.115 14.893 h1 403 NIL_403    0.046
5747 H2D9 23.876 34.203 15.937 h1 403 NIL_403    0.046
5748 H2DA 21.884 37.436 16.246 hc 403 NIL_403    0.032
5749 H2DB 22.751 37.796 17.747 hc 403 NIL_403    0.032
5750 C1YT 18.488 39.743 17.666 c3 404 NIL_404    0.104
5751 N0HD 19.032 40.352 18.881 n 404 NIL_404   -0.286
5752 C1YU 17.971 38.361 18.088 c3 404 NIL_404   -0.005
5753 C1YV 17.482 40.628 16.956 c 404 NIL_404    0.510
5754 C1YW 19.227 39.308 19.898 c3 404 NIL_404    0.034
5755 C1YX 18.945 37.957 19.208 c3 404 NIL_404    0.040
5756 O0GF 16.577 40.190 16.275 o 404 NIL_404   -0.552
5757 N0HE 20.198 37.399 18.681 n 404 NIL_404   -0.310
5758 H2HE 18.493 37.242 19.900 h1 404 NIL_404    0.052
5759 H2HF 18.505 39.468 20.704 h1 404 NIL_404    0.049
5760 H2HG 20.243 39.347 20.304 h1 404 NIL_404    0.049
5761 H2HH 17.954 37.655 17.255 hc 404 NIL_404    0.031
5762 H2HI 16.961 38.446 18.500 hc 404 NIL_404    0.031
5763 H2HJ 19.323 39.613 16.971 h1 404 NIL_404    0.061
5764 H2HK 21.022 37.970 18.794 hn 404 NIL_404    0.150
5765 N0HB 21.247 47.008 11.770 n 405 NIL_405   -0.314
5766 C1YG 22.457 47.359 11.018 c3 405 NIL_405    0.013
5767 C1YH 22.559 46.592 9.681 c3 405 NIL_405   -0.010
5768 C1YI 21.413 46.887 8.678 c3 405 NIL_405    0.101
5769 C1YJ 21.566 48.281 8.096 c 405 NIL_405    0.510
5770 N0HC 21.373 45.821 7.687 n 405 NIL_405   -0.302
5771 O0GE 21.323 49.246 8.798 o 405 NIL_405   -0.550
5772 H2GM 20.453 46.870 9.202 h1 405 NIL_405    0.061
5773 H2GN 23.518 46.822 9.209 hc 405 NIL_405    0.031
5774 H2GO 22.573 45.522 9.911 hc 405 NIL_405    0.031
5775 H2GP 23.331 47.103 11.622 h1 405 NIL_405    0.047
5776 H2GQ 22.472 48.437 10.843 h1 405 NIL_405    0.047
5777 H2GR 21.113 44.909 8.031 hn 405 NIL_405    0.150
5778 H2GS 20.460 46.670 11.237 hn 405 NIL_405    0.149
5779 C1KR 14.156 22.916 10.789 c3 406 NIL_406    0.013
5780 N0DZ 15.165 22.717 11.835 n 406 NIL_406   -0.314
5781 C1KS 14.765 22.681 9.387 c3 406 NIL_406   -0.010
5782 C1KT 13.706 22.428 8.282 c3 406 NIL_406    0.101
5783 C1KU 13.034 23.711 7.815 c 406 NIL_406    0.510
5784 N0E0 14.303 21.622 7.220 n 406 NIL_406   -0.302
5785 O0D9 12.545 24.466 8.634 o 406 NIL_406   -0.550
5786 H1Z1 12.903 21.816 8.704 h1 406 NIL_406    0.061
5787 H1Z2 15.408 23.521 9.110 hc 406 NIL_406    0.031
5788 H1Z3 15.410 21.800 9.451 hc 406 NIL_406    0.031
5789 H1Z4 13.758 23.931 10.862 h1 406 NIL_406    0.047
5790 H1Z5 13.344 22.203 10.961 h1 406 NIL_406    0.047
5791 H1Z6 14.741 20.763 7.517 hn 406 NIL_406    0.150
5792 H1Z7 16.071 22.391 11.530 hn 406 NIL_406    0.149
5793 H1Z8 20.038 22.474 16.851 hn 407 NIL_407    0.151
5794 N0E1 20.367 23.275 17.369 n 407 NIL_407   -0.298
5795 C1KV 19.438 23.859 18.361 c3 407 NIL_407    0.129
5796 C1KW 18.524 24.894 17.666 c3 407 NIL_407    0.006
5797 C1KX 18.446 22.770 18.827 c3 407 NIL_407    0.045
5798 C1KY 20.173 24.532 19.524 c 407 NIL_407    0.510
5799 C1KZ 17.236 24.137 17.283 c3 407 NIL_407    0.105
5800 N0E2 17.319 22.812 17.894 n 407 NIL_407   -0.285
5801 O0DA 19.693 24.645 20.636 o 407 NIL_407   -0.545
5802 C1L0 16.918 24.039 15.797 c 407 NIL_407    0.510
5803 O0DB 17.353 24.844 14.995 o 407 NIL_407   -0.549
5804 H1Z9 16.389 24.662 17.732 h1 407 NIL_407    0.061
5805 H1ZA 18.917 21.782 18.827 h1 407 NIL_407    0.050
5806 H1ZB 18.058 22.986 19.825 h1 407 NIL_407    0.050
5807 H1ZC 19.019 25.366 16.815 hc 407 NIL_407    0.032
5808 H1ZD 18.256 25.690 18.366 hc 407 NIL_407    0.032
5809 C1HW 21.606 28.260 -7.434 c 408 NIL_408    0.510
5810 C1HX 21.222 27.266 -8.542 c3 408 NIL_408    0.131
5811 O0CG 21.806 29.444 -7.635 o 408 NIL_408   -0.544
5812 C1HY 22.577 26.882 -9.206 c3 408 NIL_408    0.007
5813 C1HZ 20.467 28.009 -9.689 c3 408 NIL_408    0.046
5814 N0D4 20.497 26.041 -8.027 n 408 NIL_408   -0.284
5815 C1I0 22.558 27.550 -10.589 c3 408 NIL_408    0.105
5816 N0D5 21.151 27.625 -10.925 n 408 NIL_408   -0.285
5817 C1I1 23.456 26.855 -11.585 c 408 NIL_408    0.510
5818 O0CH 24.623 26.664 -11.299 o 408 NIL_408   -0.549
5819 H1W3 22.926 28.577 -10.501 h1 408 NIL_408    0.061
5820 H1W4 19.397 27.803 -9.711 h1 408 NIL_408    0.050
5821 H1W5 20.567 29.094 -9.605 h1 408 NIL_408    0.050
5822 H1W6 22.676 25.802 -9.303 hc 408 NIL_408    0.032
5823 H1W7 23.444 27.222 -8.634 hc 408 NIL_408    0.032
5824 C1L1 21.194 23.177 -9.057 c3 409 NIL_409   -0.064
5825 C1L2 20.455 24.249 -9.881 c3 409 NIL_409   -0.040
5826 C1L3 19.674 25.247 -8.992 c3 409 NIL_409    0.015
5827 H1ZE 19.081 25.888 -9.638 h1 409 NIL_409    0.047
5828 H1ZF 18.936 24.669 -8.430 h1 409 NIL_409    0.047
5829 H1ZG 21.159 24.771 -10.530 hc 409 NIL_409    0.028
5830 H1ZH 19.745 23.753 -10.545 hc 409 NIL_409    0.028
5831 H1ZI 21.654 22.444 -9.723 hc 409 NIL_409    0.023
5832 H1ZJ 20.498 22.650 -8.400 hc 409 NIL_409    0.023
5833 H1ZK 21.979 23.623 -8.442 hc 409 NIL_409    0.023
5834 C1LA 14.079 32.231 -0.170 c3 410 NIL_410    0.046
5835 C1LB 14.498 33.163 1.013 c3 410 NIL_410    0.131
5836 N0E3 14.327 32.996 -1.396 n 410 NIL_410   -0.285
5837 C1LC 14.439 34.575 0.361 c3 410 NIL_410    0.007
5838 C1LD 13.409 33.147 2.102 c 410 NIL_410    0.510
5839 N0E4 15.886 32.880 1.543 n 410 NIL_410   -0.284
5840 C1LE 13.947 34.357 -1.082 c3 410 NIL_410    0.105
5841 O0DC 12.225 33.041 1.844 o 410 NIL_410   -0.544
5842 C1LF 14.435 35.427 -2.026 c 410 NIL_410    0.510
5843 O0DD 14.219 36.594 -1.754 o 410 NIL_410   -0.549
5844 H1ZZ 12.854 34.403 -1.105 h1 410 NIL_410    0.061
5845 H200 15.425 35.044 0.359 hc 410 NIL_410    0.032
5846 H201 13.765 35.256 0.887 hc 410 NIL_410    0.032
5847 H202 14.588 31.267 -0.158 h1 410 NIL_410    0.050
5848 H203 13.008 32.020 -0.149 h1 410 NIL_410    0.050
5849 C1G3 19.946 25.443 -16.369 c 411 NIL_411    0.510
5850 C1G4 21.094 25.960 -15.513 c3 411 NIL_411    0.105
5851 O0C0 19.021 26.147 -16.727 o 411 NIL_411   -0.553
5852 N0CO 20.038 24.128 -16.683 n 411 NIL_411   -0.310
5853 N0CP 21.306 27.424 -15.566 n 411 NIL_411   -0.283
5854 C1G5 20.872 25.577 -14.032 c3 411 NIL_411    0.007
5855 C1G6 19.184 23.405 -17.637 c3 411 NIL_411    0.036
5856 C1G7 21.443 27.913 -14.191 c3 411 NIL_411    0.046
5857 C1G8 21.505 26.728 -13.202 c3 411 NIL_411    0.131
5858 C1G9 17.687 23.589 -17.471 c2 411 NIL_411   -0.031
5859 N0CQ 22.934 26.463 -12.782 n 411 NIL_411   -0.284
5860 C1GA 20.575 27.147 -12.049 c 411 NIL_411    0.510
5861 C1GB 17.002 22.923 -16.538 c2 411 NIL_411   -0.057
5862 C1GC 17.027 24.443 -18.254 c2 411 NIL_411   -0.057
5863 C1GD 23.828 25.747 -13.742 c3 411 NIL_411    0.015
5864 O0C1 19.361 27.111 -12.136 o 411 NIL_411   -0.544
5865 C1GE 15.695 23.136 -16.366 c2 411 NIL_411   -0.049
5866 C1GF 15.724 24.660 -18.082 c2 411 NIL_411   -0.049
5867 C1GG 24.677 26.675 -14.642 c3 411 NIL_411   -0.040
5868 C1GH 15.035 24.030 -17.120 c2 411 NIL_411    0.037
5869 C1GI 25.468 25.857 -15.683 c3 411 NIL_411   -0.064
5870 C1GJ 13.671 24.415 -16.906 c 411 NIL_411    0.510
5871 O0C2 13.039 24.750 -17.892 o 411 NIL_411   -0.535
5872 H1U7 26.124 25.134 -15.192 hc 411 NIL_411    0.023
5873 H1U8 26.085 26.516 -16.298 hc 411 NIL_411    0.023
5874 H1U9 24.789 25.313 -16.344 hc 411 NIL_411    0.023
5875 H1UA 25.377 27.247 -14.028 hc 411 NIL_411    0.028
5876 H1UB 24.047 27.391 -15.171 hc 411 NIL_411    0.028
5877 H1UC 15.247 25.405 -18.715 ha 411 NIL_411    0.063
5878 H1UD 15.190 22.556 -15.605 ha 411 NIL_411    0.063
5879 H1UE 23.278 25.056 -14.372 h1 411 NIL_411    0.047
5880 H1UF 24.515 25.117 -13.167 h1 411 NIL_411    0.047
5881 H1UG 17.558 25.002 -19.020 ha 411 NIL_411    0.063
5882 H1UH 17.515 22.214 -15.890 ha 411 NIL_411    0.063
5883 H1UI 20.568 28.533 -13.976 h1 411 NIL_411    0.050
5884 H1UJ 22.349 28.518 -14.096 h1 411 NIL_411    0.050
5885 H1UK 19.426 22.343 -17.554 h1 411 NIL_411    0.052
5886 H1UL 19.478 23.723 -18.639 h1 411 NIL_411    0.052
5887 H1UM 19.797 25.501 -13.856 hc 411 NIL_411    0.032
5888 H1UN 21.284 24.596 -13.783 hc 411 NIL_411    0.032
5889 H1UO 22.003 25.485 -15.887 h1 411 NIL_411    0.061
5890 H1UP 20.826 23.615 -16.317 hn 411 NIL_411    0.150
5891 C1I5 15.298 32.895 5.203 c3 412 NIL_412    0.007
5892 C1I6 15.174 33.541 3.810 c3 412 NIL_412    0.105
5893 C1I7 13.875 33.001 5.825 c3 412 NIL_412    0.131
5894 N0D6 13.811 33.275 3.387 n 412 NIL_412   -0.285
5895 C1I8 16.249 33.113 2.837 c 412 NIL_412    0.510
5896 C1I9 12.954 33.184 4.581 c3 412 NIL_412    0.046
5897 N0D7 13.744 34.139 6.808 n 412 NIL_412   -0.284
5898 C1IA 13.510 31.626 6.404 c 412 NIL_412    0.510
5899 O0CI 17.396 32.983 3.223 o 412 NIL_412   -0.549
5900 O0CJ 13.533 30.608 5.737 o 412 NIL_412   -0.547
5901 H1WF 12.274 32.335 4.458 h1 412 NIL_412    0.050
5902 H1WG 12.336 34.077 4.673 h1 412 NIL_412    0.050
5903 H1WH 15.274 34.625 3.885 h1 412 NIL_412    0.061
5904 H1WI 15.592 31.851 5.068 hc 412 NIL_412    0.032
5905 H1WJ 16.071 33.364 5.816 hc 412 NIL_412    0.032
5906 C1LT 10.238 25.454 17.666 c3 413 NIL_413    0.104
5907 N0E7 10.782 26.063 18.881 n 413 NIL_413   -0.286
5908 C1LU 9.721 24.072 18.088 c3 413 NIL_413   -0.005
5909 C1LV 9.232 26.339 16.956 c 413 NIL_413    0.510
5910 C1LW 10.977 25.019 19.898 c3 413 NIL_413    0.034
5911 C1LX 10.695 23.668 19.208 c3 413 NIL_413    0.040
5912 O0DF 8.327 25.901 16.275 o 413 NIL_413   -0.552
5913 N0E8 11.948 23.110 18.681 n 413 NIL_413   -0.310
5914 H20W 10.243 22.953 19.900 h1 413 NIL_413    0.052
5915 H20X 10.255 25.179 20.704 h1 413 NIL_413    0.049
5916 H20Y 11.993 25.058 20.304 h1 413 NIL_413    0.049
5917 H20Z 9.704 23.366 17.255 hc 413 NIL_413    0.031
5918 H210 8.711 24.157 18.500 hc 413 NIL_413    0.031
5919 H211 11.073 25.324 16.971 h1 413 NIL_413    0.061
5920 H212 12.772 23.681 18.794 hn 413 NIL_413    0.150
5921 C1LY 8.985 27.161 -4.974 c3 414 NIL_414   -0.064
5922 C1LZ 9.967 26.595 -3.931 c3 414 NIL_414   -0.040
5923 C1M0 10.060 25.052 -4.024 c3 414 NIL_414    0.015
5924 H213 9.098 24.628 -3.720 h1 414 NIL_414    0.047
5925 H214 10.188 24.780 -5.071 h1 414 NIL_414    0.047
5926 H215 10.945 27.050 -4.089 hc 414 NIL_414    0.028
5927 H216 9.638 26.890 -2.932 hc 414 NIL_414    0.028
5928 H217 7.985 26.742 -4.840 hc 414 NIL_414    0.023
5929 H218 9.322 26.934 -5.989 hc 414 NIL_414    0.023
5930 H219 8.916 28.245 -4.872 hc 414 NIL_414    0.023
5931 C1JY 16.101 34.911 19.561 c3 415 NIL_415    0.034
5932 C1JZ 14.973 35.838 19.068 c3 415 NIL_415    0.040
5933 N0DP 17.058 34.774 18.457 n 415 NIL_415   -0.286
5934 C1K0 15.673 36.662 17.976 c3 415 NIL_415   -0.005
5935 N0DQ 13.866 35.055 18.504 n 415 NIL_415   -0.310
5936 C1K1 16.652 35.652 17.358 c3 415 NIL_415    0.104
5937 C1K2 17.823 36.256 16.606 c 415 NIL_415    0.510
5938 O0D0 17.750 37.309 16.005 o 415 NIL_415   -0.552
5939 H1Y9 16.114 35.033 16.634 h1 415 NIL_415    0.061
5940 H1YA 14.976 37.068 17.238 hc 415 NIL_415    0.031
5941 H1YB 16.224 37.487 18.436 hc 415 NIL_415    0.031
5942 H1YC 14.607 36.475 19.879 h1 415 NIL_415    0.052
5943 H1YD 16.615 35.376 20.407 h1 415 NIL_415    0.049
5944 H1YE 15.714 33.933 19.861 h1 415 NIL_415    0.049
5945 H1YF 14.101 34.149 18.127 hn 415 NIL_415    0.150
5946 C1HK 12.615 24.332 0.086 c3 416 NIL_416    0.007
5947 C1HL 11.860 23.539 -0.989 c3 416 NIL_416    0.105
5948 C1HM 13.706 23.331 0.574 c3 416 NIL_416    0.131
5949 N0D0 12.918 22.847 -1.694 n 416 NIL_416   -0.285
5950 C1HN 10.905 24.355 -1.826 c 416 NIL_416    0.510
5951 C1HO 13.793 22.324 -0.632 c3 416 NIL_416    0.046
5952 C1HP 13.049 22.636 1.781 c 416 NIL_416    0.510
5953 N0D1 14.993 24.047 0.929 n 416 NIL_416   -0.284
5954 O0CC 9.931 24.855 -1.295 o 416 NIL_416   -0.549
5955 O0CD 12.261 21.714 1.676 o 416 NIL_416   -0.544
5956 H1VS 14.800 22.161 -1.002 h1 416 NIL_416    0.050
5957 H1VT 13.421 21.336 -0.352 h1 416 NIL_416    0.050
5958 H1VU 11.239 22.783 -0.502 h1 416 NIL_416    0.061
5959 H1VV 13.053 25.231 -0.352 hc 416 NIL_416    0.032
5960 H1VW 11.947 24.654 0.889 hc 416 NIL_416    0.032
5961 C1MA 25.786 28.882 5.483 c3 417 NIL_417   -0.064
5962 C1MB 25.427 27.464 5.962 c3 417 NIL_417   -0.040
5963 C1MC 23.919 27.124 5.839 c3 417 NIL_417    0.015
5964 H21T 23.719 27.028 4.775 h1 417 NIL_417    0.047
5965 H21U 23.753 26.141 6.290 h1 417 NIL_417    0.047
5966 H21V 25.990 26.744 5.362 hc 417 NIL_417    0.028
5967 H21W 25.767 27.337 6.991 hc 417 NIL_417    0.028
5968 H21X 25.278 29.636 6.089 hc 417 NIL_417    0.023
5969 H21Y 25.511 29.016 4.436 hc 417 NIL_417    0.023
5970 H21Z 26.862 29.046 5.567 hc 417 NIL_417    0.023
5971 C1JU 21.648 29.087 9.836 c3 418 NIL_418   -0.010
5972 C1JV 22.089 29.395 8.383 c3 418 NIL_418    0.101
5973 C1JW 22.743 29.442 10.865 c3 418 NIL_418    0.013
5974 C1JX 23.013 28.334 7.797 c 418 NIL_418    0.510
5975 N0DN 20.926 29.705 7.557 n 418 NIL_418   -0.302
5976 N0DO 22.328 29.117 12.232 n 418 NIL_418   -0.314
5977 O0CZ 23.786 27.725 8.513 o 418 NIL_418   -0.550
5978 H1Y2 23.660 28.887 10.658 h1 418 NIL_418    0.047
5979 H1Y3 22.970 30.508 10.793 h1 418 NIL_418    0.047
5980 H1Y4 22.681 30.313 8.399 h1 418 NIL_418    0.061
5981 H1Y5 21.371 28.034 9.924 hc 418 NIL_418    0.031
5982 H1Y6 20.756 29.673 10.080 hc 418 NIL_418    0.031
5983 H1Y7 22.334 28.143 12.492 hn 418 NIL_418    0.149
5984 H1Y8 20.209 30.264 7.993 hn 418 NIL_418    0.150
5985 N0E5 12.997 32.719 11.770 n 419 NIL_419   -0.314
5986 C1LG 14.207 33.070 11.018 c3 419 NIL_419    0.013
5987 C1LH 14.309 32.303 9.681 c3 419 NIL_419   -0.010
5988 C1LI 13.163 32.598 8.678 c3 419 NIL_419    0.101
5989 C1LJ 13.316 33.992 8.096 c 419 NIL_419    0.510
5990 N0E6 13.123 31.532 7.687 n 419 NIL_419   -0.302
5991 O0DE 13.073 34.957 8.798 o 419 NIL_419   -0.550
5992 H204 12.203 32.581 9.202 h1 419 NIL_419    0.061
5993 H205 15.268 32.533 9.209 hc 419 NIL_419    0.031
5994 H206 14.323 31.233 9.911 hc 419 NIL_419    0.031
5995 H207 15.081 32.814 11.622 h1 419 NIL_419    0.047
5996 H208 14.222 34.148 10.843 h1 419 NIL_419    0.047
5997 H209 12.863 30.620 8.031 hn 419 NIL_419    0.150
5998 H20A 12.210 32.381 11.237 hn 419 NIL_419    0.149
5999 C1M5 9.576 36.889 15.353 c3 420 NIL_420   -0.052
6000 C1M6 10.770 36.410 16.205 c3 420 NIL_420   -0.004
6001 H21H 11.679 36.433 15.597 h1 420 NIL_420    0.043
6002 H21I 10.882 37.129 17.017 h1 420 NIL_420    0.043
6003 H21J 8.670 36.942 15.961 hc 420 NIL_420    0.024
6004 H21K 9.390 36.225 14.506 hc 420 NIL_420    0.024
6005 H21L 9.780 37.887 14.959 hc 420 NIL_420    0.024
6006 C1KL 22.634 27.544 0.176 c3 421 NIL_421    0.007
6007 C1KM 23.033 28.303 -1.098 c3 421 NIL_421    0.105
6008 C1KN 21.420 28.333 0.747 c3 421 NIL_421    0.131
6009 N0DX 21.755 28.706 -1.637 n 421 NIL_421   -0.285
6010 C1KO 23.932 27.496 -2.002 c 421 NIL_421    0.510
6011 C1KP 21.004 29.213 -0.484 c3 421 NIL_421    0.046
6012 C1KQ 21.968 29.219 1.876 c 421 NIL_421    0.510
6013 N0DY 20.379 27.366 1.253 n 421 NIL_421   -0.284
6014 O0D7 25.038 27.187 -1.599 o 421 NIL_421   -0.549
6015 O0D8 22.448 30.321 1.690 o 421 NIL_421   -0.544
6016 H1YW 19.940 29.200 -0.686 h1 421 NIL_421    0.050
6017 H1YX 21.280 30.261 -0.349 h1 421 NIL_421    0.050
6018 H1YY 23.589 29.206 -0.830 h1 421 NIL_421    0.061
6019 H1YZ 22.336 26.526 -0.091 hc 421 NIL_421    0.032
6020 H1Z0 23.469 27.481 0.880 hc 421 NIL_421    0.032
6021 O0CK 23.080 32.600 17.808 o 422 NIL_422   -0.545
6022 C1IB 22.163 32.030 17.246 c 422 NIL_422    0.510
6023 C1IC 22.349 30.705 16.485 c3 422 NIL_422    0.128
6024 C1ID 22.473 29.563 17.516 c3 422 NIL_422    0.003
6025 C1IE 23.774 30.706 15.857 c3 422 NIL_422    0.029
6026 N0D8 21.233 30.414 15.517 n 422 NIL_422   -0.275
6027 C1IF 23.936 29.574 18.023 c3 422 NIL_422    0.090
6028 N0D9 24.698 30.199 16.899 n3 422 NIL_422   -0.290
6029 C1IG 24.396 28.247 18.640 c 422 NIL_422    0.510
6030 O0CL 25.565 27.960 18.816 o 422 NIL_422   -0.557
6031 H1WK 23.969 30.282 18.857 h1 422 NIL_422    0.057
6032 H1WL 23.838 30.046 14.998 h1 422 NIL_422    0.046
6033 H1WM 24.069 31.707 15.528 h1 422 NIL_422    0.046
6034 H1WN 22.276 28.611 17.020 hc 422 NIL_422    0.032
6035 H1WO 21.753 29.668 18.332 hc 422 NIL_422    0.032
6036 O0CS 21.532 27.542 -17.753 o 423 NIL_423   -0.535
6037 C1J1 21.311 28.156 -16.724 c 423 NIL_423    0.510
6038 C1J2 21.006 29.557 -16.876 c2 423 NIL_423    0.037
6039 C1J3 20.557 29.990 -18.067 c2 423 NIL_423   -0.049
6040 C1J4 21.069 30.467 -15.885 c2 423 NIL_423   -0.049
6041 C1J5 20.157 31.248 -18.249 c2 423 NIL_423   -0.057
6042 C1J6 20.671 31.727 -16.070 c2 423 NIL_423   -0.057
6043 C1J7 20.195 32.129 -17.247 c2 423 NIL_423   -0.031
6044 C1J8 19.658 33.535 -17.442 c3 423 NIL_423    0.036
6045 N0DG 18.569 33.914 -16.531 n 423 NIL_423   -0.310
6046 C1J9 17.480 33.163 -16.244 c 423 NIL_423    0.510
6047 C1JA 16.473 33.853 -15.334 c3 423 NIL_423    0.105
6048 O0CT 17.332 32.028 -16.659 o 423 NIL_423   -0.553
6049 N0DH 15.087 33.352 -15.431 n 423 NIL_423   -0.283
6050 C1JB 16.903 33.706 -13.858 c3 423 NIL_423    0.007
6051 C1JC 14.541 33.241 -14.072 c3 423 NIL_423    0.046
6052 C1JD 15.583 33.729 -13.033 c3 423 NIL_423    0.131
6053 N0DI 15.243 35.104 -12.499 n 423 NIL_423   -0.284
6054 C1JE 15.606 32.623 -11.959 c 423 NIL_423    0.510
6055 C1JF 15.459 36.277 -13.404 c3 423 NIL_423    0.015
6056 O0CU 16.088 31.523 -12.167 o 423 NIL_423   -0.544
6057 C1JG 14.300 36.634 -14.364 c3 423 NIL_423   -0.040
6058 C1JH 12.950 36.848 -13.651 c3 423 NIL_423   -0.064
6059 H1X9 12.202 37.195 -14.362 hc 423 NIL_423    0.023
6060 H1XA 13.045 37.598 -12.863 hc 423 NIL_423    0.023
6061 H1XB 12.587 35.918 -13.208 hc 423 NIL_423    0.023
6062 H1XC 14.183 35.870 -15.131 hc 423 NIL_423    0.028
6063 H1XD 14.565 37.556 -14.886 hc 423 NIL_423    0.028
6064 H1XE 16.369 36.164 -13.986 h1 423 NIL_423    0.047
6065 H1XF 15.650 37.161 -12.791 h1 423 NIL_423    0.047
6066 H1XG 14.291 32.191 -13.895 h1 423 NIL_423    0.050
6067 H1XH 13.627 33.835 -13.989 h1 423 NIL_423    0.050
6068 H1XI 17.422 32.750 -13.751 hc 423 NIL_423    0.032
6069 H1XJ 17.617 34.474 -13.551 hc 423 NIL_423    0.032
6070 H1XK 16.459 34.907 -15.619 h1 423 NIL_423    0.061
6071 H1XL 20.470 34.255 -17.316 h1 423 NIL_423    0.052
6072 H1XM 19.276 33.643 -18.461 h1 423 NIL_423    0.052
6073 H1XN 20.713 32.422 -15.234 ha 423 NIL_423    0.063
6074 H1XO 19.770 31.544 -19.219 ha 423 NIL_423    0.063
6075 H1XP 21.442 30.235 -14.901 ha 423 NIL_423    0.063
6076 H1XQ 20.465 29.314 -18.914 ha 423 NIL_423    0.063
6077 H1XR 18.615 34.842 -16.138 hn 423 NIL_423    0.150
6078 C1M3 13.652 19.088 17.373 c3 424 NIL_424   -0.004
6079 C1M4 13.562 17.971 16.315 c3 424 NIL_424   -0.052
6080 H21C 13.500 16.997 16.805 hc 424 NIL_424    0.024
6081 H21D 14.439 17.967 15.664 hc 424 NIL_424    0.024
6082 H21E 12.670 18.101 15.699 hc 424 NIL_424    0.024
6083 H21F 12.771 19.019 18.016 h1 424 NIL_424    0.043
6084 H21G 14.540 18.932 17.993 h1 424 NIL_424    0.043
6085 C1MG 21.510 29.402 14.469 c3 425 NIL_425    0.092
6086 C1MH 21.919 30.019 13.147 c 425 NIL_425    0.510
6087 O0DH 21.880 31.215 12.923 o 425 NIL_425   -0.557
6088 H227 20.614 28.806 14.274 h1 425 NIL_425    0.057
6089 H228 22.291 28.705 14.781 h1 425 NIL_425    0.057
6090 C1H3 22.037 24.953 17.925 c3 426 NIL_426    0.104
6091 N0CU 21.417 24.987 19.250 n 426 NIL_426   -0.286
6092 C1H4 23.548 25.087 18.175 c3 426 NIL_426   -0.005
6093 C1H5 21.597 23.765 17.092 c 426 NIL_426    0.510
6094 C1H6 22.383 25.513 20.223 c3 426 NIL_426    0.034
6095 C1H7 23.598 26.000 19.413 c3 426 NIL_426    0.040
6096 O0C7 22.296 23.257 16.239 o 426 NIL_426   -0.552
6097 N0CV 23.413 27.405 19.024 n 426 NIL_426   -0.310
6098 H1VB 24.530 25.882 19.975 h1 426 NIL_426    0.052
6099 H1VC 22.686 24.698 20.885 h1 426 NIL_426    0.049
6100 H1VD 21.942 26.322 20.813 h1 426 NIL_426    0.049
6101 H1VE 24.080 25.506 17.315 hc 426 NIL_426    0.031
6102 H1VF 23.980 24.114 18.420 hc 426 NIL_426    0.031
6103 H1VG 21.690 25.841 17.387 h1 426 NIL_426    0.061
6104 H1VH 22.459 27.711 18.902 hn 426 NIL_426    0.150
6105 C1GK 13.505 31.962 -16.756 c2 427 NIL_427    0.037
6106 C1GL 14.498 32.983 -16.607 c 427 NIL_427    0.510
6107 C1GM 12.540 31.709 -15.857 c2 427 NIL_427   -0.049
6108 C1GN 13.581 31.168 -17.834 c2 427 NIL_427   -0.049
6109 O0C3 14.911 33.485 -17.639 o 427 NIL_427   -0.535
6110 C1GO 11.699 30.685 -16.026 c2 427 NIL_427   -0.057
6111 C1GP 12.745 30.145 -17.995 c2 427 NIL_427   -0.057
6112 C1GQ 11.801 29.884 -17.088 c2 427 NIL_427   -0.031
6113 C1GR 10.879 28.695 -17.271 c3 427 NIL_427    0.036
6114 N0CR 11.081 27.564 -16.356 n 427 NIL_427   -0.310
6115 C1GS 12.259 26.941 -16.113 c 427 NIL_427    0.510
6116 C1GT 12.117 25.631 -15.348 c3 427 NIL_427    0.105
6117 O0C4 13.333 27.387 -16.472 o 427 NIL_427   -0.553
6118 N0CS 13.090 24.567 -15.678 n 427 NIL_427   -0.283
6119 C1GU 12.258 25.864 -13.832 c3 427 NIL_427    0.007
6120 C1GV 13.379 23.832 -14.436 c3 427 NIL_427    0.046
6121 C1GW 12.623 24.481 -13.243 c3 427 NIL_427    0.131
6122 N0CT 11.351 23.816 -12.813 n 427 NIL_427   -0.284
6123 C1GX 13.639 24.614 -12.094 c 427 NIL_427    0.510
6124 C1GY 10.458 23.266 -13.863 c3 427 NIL_427    0.015
6125 O0C5 14.711 25.170 -12.238 o 427 NIL_427   -0.544
6126 C1GZ 10.045 21.799 -13.605 c3 427 NIL_427   -0.040
6127 C1H0 11.238 20.825 -13.611 c3 427 NIL_427   -0.064
6128 H1UQ 11.997 21.123 -12.885 hc 427 NIL_427    0.023
6129 H1UR 11.697 20.785 -14.600 hc 427 NIL_427    0.023
6130 H1US 10.898 19.821 -13.348 hc 427 NIL_427    0.023
6131 H1UT 9.334 21.495 -14.375 hc 427 NIL_427    0.028
6132 H1UU 9.525 21.724 -12.648 hc 427 NIL_427    0.028
6133 H1UV 10.932 23.294 -14.842 h1 427 NIL_427    0.047
6134 H1UW 9.562 23.892 -13.912 h1 427 NIL_427    0.047
6135 H1UX 14.450 23.907 -14.251 h1 427 NIL_427    0.050
6136 H1UY 13.109 22.778 -14.555 h1 427 NIL_427    0.050
6137 H1UZ 13.061 26.584 -13.649 hc 427 NIL_427    0.032
6138 H1V0 11.339 26.270 -13.403 hc 427 NIL_427    0.032
6139 H1V1 11.119 25.245 -15.568 h1 427 NIL_427    0.061
6140 H1V2 9.845 29.029 -17.161 h1 427 NIL_427    0.052
6141 H1V3 10.981 28.308 -18.289 h1 427 NIL_427    0.052
6142 H1V4 12.853 29.508 -18.869 ha 427 NIL_427    0.063
6143 H1V5 10.931 30.496 -15.279 ha 427 NIL_427    0.063
6144 H1V6 14.357 31.315 -18.582 ha 427 NIL_427    0.063
6145 H1V7 12.400 32.329 -14.982 ha 427 NIL_427    0.063
6146 H1V8 10.241 27.142 -15.988 hn 427 NIL_427    0.150
6147 N0DV 9.385 27.668 17.143 n 428 NIL_428   -0.298
6148 C1KF 10.508 28.281 17.883 c3 428 NIL_428    0.129
6149 H1YQ 8.724 28.297 16.712 hn 428 NIL_428    0.151
6150 C1KG 11.684 28.526 16.903 c3 428 NIL_428    0.006
6151 C1KH 10.087 29.702 18.340 c3 428 NIL_428    0.045
6152 C1KI 10.992 27.392 19.037 c 428 NIL_428    0.510
6153 C1KJ 11.866 30.050 16.804 c3 428 NIL_428    0.105
6154 N0DW 10.676 30.653 17.394 n 428 NIL_428   -0.285
6155 O0D5 11.521 27.832 20.040 o 428 NIL_428   -0.545
6156 C1KK 12.154 30.560 15.402 c 428 NIL_428    0.510
6157 O0D6 12.762 29.882 14.594 o 428 NIL_428   -0.549
6158 H1YR 12.720 30.342 17.422 h1 428 NIL_428    0.061
6159 H1YS 8.998 29.805 18.363 h1 428 NIL_428    0.050
6160 H1YT 10.485 29.934 19.331 h1 428 NIL_428    0.050
6161 H1YU 11.453 28.100 15.922 hc 428 NIL_428    0.032
6162 H1YV 12.612 28.062 17.248 hc 428 NIL_428    0.032
6163 C1L7 25.267 26.952 -5.079 c3 429 NIL_429   -0.040
6164 C1L8 24.343 26.239 -4.066 c3 429 NIL_429    0.015
6165 C1L9 26.199 25.942 -5.774 c3 429 NIL_429   -0.064
6166 H1ZS 26.802 25.399 -5.041 hc 429 NIL_429    0.023
6167 H1ZT 26.877 26.459 -6.456 hc 429 NIL_429    0.023
6168 H1ZU 25.619 25.218 -6.350 hc 429 NIL_429    0.023
6169 H1ZV 23.755 25.481 -4.577 h1 429 NIL_429    0.047
6170 H1ZW 24.987 25.662 -3.395 h1 429 NIL_429    0.047
6171 H1ZX 25.869 27.702 -4.561 hc 429 NIL_429    0.028
6172 H1ZY 24.685 27.461 -5.847 hc 429 NIL_429    0.028
6173 C1JO 15.385 34.364 -8.981 c3 430 NIL_430    0.007
6174 C1JP 14.607 34.183 -10.293 c3 430 NIL_430    0.105
6175 C1JQ 15.542 32.926 -8.404 c3 430 NIL_430    0.131
6176 N0DL 15.024 32.883 -10.770 n 430 NIL_430   -0.285
6177 C1JR 14.788 35.342 -11.235 c 430 NIL_430    0.510
6178 C1JS 15.037 32.025 -9.580 c3 430 NIL_430    0.046
6179 N0DM 16.974 32.666 -7.988 n 430 NIL_430   -0.284
6180 C1JT 14.550 32.876 -7.231 c 430 NIL_430    0.510
6181 O0CX 14.522 36.462 -10.839 o 430 NIL_430   -0.549
6182 O0CY 13.365 32.630 -7.361 o 430 NIL_430   -0.544
6183 H1XX 15.618 31.116 -9.721 h1 430 NIL_430    0.050
6184 H1XY 14.005 31.703 -9.426 h1 430 NIL_430    0.050
6185 H1XZ 13.536 34.126 -10.077 h1 430 NIL_430    0.061
6186 H1Y0 16.357 34.817 -9.182 hc 430 NIL_430    0.032
6187 H1Y1 14.853 35.042 -8.308 hc 430 NIL_430    0.032
6188 C1MD 16.589 27.382 -7.753 c3 431 NIL_431   -0.064
6189 C1ME 15.815 27.188 -9.072 c3 431 NIL_431   -0.040
6190 C1MF 14.273 27.050 -8.917 c3 431 NIL_431    0.015
6191 H220 13.873 28.024 -8.622 h1 431 NIL_431    0.047
6192 H221 13.864 26.849 -9.909 h1 431 NIL_431    0.047
6193 H222 16.010 28.052 -9.711 hc 431 NIL_431    0.028
6194 H223 16.231 26.333 -9.602 hc 431 NIL_431    0.028
6195 H224 17.658 27.460 -7.965 hc 431 NIL_431    0.023
6196 H225 16.443 26.533 -7.081 hc 431 NIL_431    0.023
6197 H226 16.273 28.295 -7.245 hc 431 NIL_431    0.023
6198 C1M1 12.901 32.750 13.117 c 432 NIL_432    0.510
6199 C1M2 11.595 32.203 13.661 c3 432 NIL_432    0.092
6200 O0DG 13.802 33.156 13.826 o 432 NIL_432   -0.557
6201 H21A 10.803 32.923 13.459 h1 432 NIL_432    0.057
6202 H21B 11.354 31.320 13.062 h1 432 NIL_432    0.057
6203 C1I2 12.095 36.800 6.444 c3 433 NIL_433   -0.064
6204 C1I3 13.357 36.436 5.641 c3 433 NIL_433   -0.040
6205 C1I4 14.299 35.466 6.393 c3 433 NIL_433    0.015
6206 H1W8 15.196 35.337 5.793 h1 433 NIL_433    0.047
6207 H1W9 14.650 35.985 7.289 h1 433 NIL_433    0.047
6208 H1WA 13.080 36.031 4.668 hc 433 NIL_433    0.028
6209 H1WB 13.911 37.355 5.438 hc 433 NIL_433    0.028
6210 H1WC 11.482 35.916 6.629 hc 433 NIL_433    0.023
6211 H1WD 11.496 37.525 5.890 hc 433 NIL_433    0.023
6212 H1WE 12.364 37.249 7.404 hc 433 NIL_433    0.023
6213 C1IN 22.212 28.473 -5.009 c3 434 NIL_434    0.046
6214 C1IO 22.122 27.516 -3.786 c3 434 NIL_434    0.131
6215 N0DC 21.773 27.741 -6.201 n 434 NIL_434   -0.285
6216 C1IP 21.359 26.281 -4.358 c3 434 NIL_434    0.007
6217 N0DD 23.484 27.143 -3.240 n 434 NIL_434   -0.284
6218 C1IQ 21.214 28.263 -2.793 c 434 NIL_434    0.510
6219 C1IR 21.621 26.336 -5.873 c3 434 NIL_434    0.105
6220 O0CO 20.045 28.497 -3.044 o 434 NIL_434   -0.544
6221 C1IS 20.634 25.595 -6.745 c 434 NIL_434    0.510
6222 O0CP 20.019 24.638 -6.312 o 434 NIL_434   -0.549
6223 H1WU 22.576 25.865 -6.107 h1 434 NIL_434    0.061
6224 H1WV 20.283 26.356 -4.188 hc 434 NIL_434    0.032
6225 H1WW 21.686 25.336 -3.916 hc 434 NIL_434    0.032
6226 H1WX 21.551 29.337 -4.891 h1 434 NIL_434    0.050
6227 H1WY 23.227 28.851 -5.143 h1 434 NIL_434    0.050
6228 C1IT 25.999 29.661 16.418 c3 435 NIL_435   -0.004
6229 C1IU 25.874 28.344 15.619 c3 435 NIL_435   -0.052
6230 H1WZ 26.868 27.980 15.355 hc 435 NIL_435    0.024
6231 H1X0 25.318 28.491 14.691 hc 435 NIL_435    0.024
6232 H1X1 25.377 27.565 16.197 hc 435 NIL_435    0.024
6233 H1X2 26.672 29.516 17.264 h1 435 NIL_435    0.043
6234 H1X3 26.461 30.410 15.770 h1 435 NIL_435    0.043
6235 C1HE 14.383 21.943 5.917 c 436 NIL_436    0.510
6236 C1HF 13.685 23.209 5.412 c3 436 NIL_436    0.131
6237 O0CA 14.985 21.193 5.172 o 436 NIL_436   -0.547
6238 C1HG 14.749 24.078 4.671 c3 436 NIL_436    0.007
6239 C1HH 12.738 22.731 4.274 c3 436 NIL_436    0.046
6240 N0CY 12.969 23.987 6.479 n 436 NIL_436   -0.284
6241 C1HI 14.195 24.277 3.247 c3 436 NIL_436    0.105
6242 N0CZ 13.349 23.128 3.001 n 436 NIL_436   -0.285
6243 C1HJ 15.239 24.530 2.183 c 436 NIL_436    0.510
6244 O0CB 16.256 25.134 2.464 o 436 NIL_436   -0.549
6245 H1VN 13.547 25.155 3.221 h1 436 NIL_436    0.061
6246 H1VO 12.589 21.647 4.299 h1 436 NIL_436    0.050
6247 H1VP 11.761 23.210 4.344 h1 436 NIL_436    0.050
6248 H1VQ 15.711 23.562 4.615 hc 436 NIL_436    0.032
6249 H1VR 14.932 25.036 5.163 hc 436 NIL_436    0.032
6250 C1LK 15.688 36.140 -4.000 c3 437 NIL_437    0.015
6251 C1LL 14.723 36.669 -5.085 c3 437 NIL_437   -0.040
6252 C1LM 15.379 37.800 -5.895 c3 437 NIL_437   -0.064
6253 H20B 14.672 38.196 -6.628 hc 437 NIL_437    0.023
6254 H20C 16.257 37.428 -6.428 hc 437 NIL_437    0.023
6255 H20D 15.689 38.618 -5.240 hc 437 NIL_437    0.023
6256 H20E 13.810 37.042 -4.613 hc 437 NIL_437    0.028
6257 H20F 14.433 35.874 -5.772 hc 437 NIL_437    0.028
6258 H20G 16.633 35.845 -4.449 h1 437 NIL_437    0.047
6259 H20H 15.953 36.982 -3.352 h1 437 NIL_437    0.047
6260 C1K9 13.200 24.768 -8.570 c3 438 NIL_438    0.131
6261 C1KA 11.858 24.997 -9.336 c3 438 NIL_438    0.007
6262 C1KB 14.115 24.157 -9.677 c3 438 NIL_438    0.046
6263 N0DT 13.763 26.026 -7.955 n 438 NIL_438   -0.284
6264 C1KC 12.860 23.676 -7.543 c 438 NIL_438    0.510
6265 C1KD 11.934 23.943 -10.452 c3 438 NIL_438    0.105
6266 N0DU 13.308 24.061 -10.902 n 438 NIL_438   -0.285
6267 O0D3 12.780 22.495 -7.830 o 438 NIL_438   -0.544
6268 C1KE 10.888 23.980 -11.544 c 438 NIL_438    0.510
6269 O0D4 9.704 24.048 -11.281 o 438 NIL_438   -0.549
6270 H1YL 11.814 22.946 -10.019 h1 438 NIL_438    0.061
6271 H1YM 15.001 24.752 -9.855 h1 438 NIL_438    0.050
6272 H1YN 14.463 23.157 -9.408 h1 438 NIL_438    0.050
6273 H1YO 11.801 25.996 -9.774 hc 438 NIL_438    0.032
6274 H1YP 10.985 24.852 -8.694 hc 438 NIL_438    0.032
6275 C1K3 22.335 29.366 4.354 c3 439 NIL_439    0.046
6276 C1K4 21.834 28.531 5.565 c3 439 NIL_439    0.131
6277 N0DR 21.897 28.703 3.124 n 439 NIL_439   -0.285
6278 C1K5 21.101 27.316 4.917 c3 439 NIL_439    0.007
6279 N0DS 22.958 28.084 6.458 n 439 NIL_439   -0.284
6280 C1K6 20.770 29.389 6.261 c 439 NIL_439    0.510
6281 C1K7 21.497 27.337 3.429 c3 439 NIL_439    0.105
6282 O0D1 19.787 29.806 5.677 o 439 NIL_439   -0.547
6283 C1K8 20.453 26.786 2.484 c 439 NIL_439    0.510
6284 O0D2 19.708 25.888 2.831 o 439 NIL_439   -0.549
6285 H1YG 22.374 26.704 3.276 h1 439 NIL_439    0.061
6286 H1YH 20.016 27.415 5.002 hc 439 NIL_439    0.032
6287 H1YI 21.369 26.363 5.380 hc 439 NIL_439    0.032
6288 H1YJ 21.937 30.384 4.377 h1 439 NIL_439    0.050
6289 H1YK 23.420 29.432 4.344 h1 439 NIL_439    0.050
6290 O0CM 16.579 20.719 18.159 o 440 NIL_440   -0.545
6291 C1IH 16.497 21.786 17.579 c 440 NIL_440    0.510
6292 C1II 15.517 22.060 16.425 c3 440 NIL_440    0.128
6293 C1IJ 14.260 22.718 17.032 c3 440 NIL_440    0.003
6294 C1IK 14.893 20.725 15.913 c3 440 NIL_440    0.029
6295 N0DA 16.158 22.970 15.412 n 440 NIL_440   -0.275
6296 C1IL 13.519 21.553 17.709 c3 440 NIL_440    0.090
6297 N0DB 13.702 20.437 16.757 n3 440 NIL_440   -0.290
6298 C1IM 12.090 21.900 18.096 c 440 NIL_440    0.510
6299 O0CN 11.150 21.153 17.902 o 440 NIL_440   -0.557
6300 H1WP 14.039 21.319 18.643 h1 440 NIL_440    0.057
6301 H1WQ 14.520 20.826 14.893 h1 440 NIL_440    0.046
6302 H1WR 15.626 19.914 15.937 h1 440 NIL_440    0.046
6303 H1WS 13.634 23.147 16.246 hc 440 NIL_440    0.032
6304 H1WT 14.501 23.507 17.747 hc 440 NIL_440    0.032
6305 C1M7 17.845 29.080 0.858 c3 441 NIL_441   -0.064
6306 C1M8 17.916 27.546 0.778 c3 441 NIL_441   -0.040
6307 C1M9 19.284 26.967 0.337 c3 441 NIL_441    0.015
6308 H21M 19.211 25.875 0.349 h1 441 NIL_441    0.047
6309 H21N 19.493 27.234 -0.698 h1 441 NIL_441    0.047
6310 H21O 17.661 27.147 1.760 hc 441 NIL_441    0.028
6311 H21P 17.147 27.207 0.090 hc 441 NIL_441    0.028
6312 H21Q 17.911 29.522 -0.137 hc 441 NIL_441    0.023
6313 H21R 18.644 29.479 1.486 hc 441 NIL_441    0.023
6314 H21S 16.890 29.382 1.295 hc 441 NIL_441    0.023
6315 N0DJ 11.126 24.452 -3.167 n 442 NIL_442   -0.284
6316 C1JI 12.399 24.000 -3.844 c3 442 NIL_442    0.131
6317 C1JJ 13.211 25.239 -4.329 c3 442 NIL_442    0.007
6318 C1JK 12.176 23.213 -5.173 c3 442 NIL_442    0.046
6319 C1JL 13.305 23.118 -2.964 c 442 NIL_442    0.510
6320 C1JM 12.759 25.424 -5.787 c3 442 NIL_442    0.105
6321 N0DK 12.620 24.072 -6.280 n 442 NIL_442   -0.285
6322 O0CV 14.358 22.674 -3.385 o 442 NIL_442   -0.544
6323 C1JN 13.565 26.368 -6.648 c 442 NIL_442    0.510
6324 O0CW 13.962 27.418 -6.179 o 442 NIL_442   -0.549
6325 H1XS 11.768 25.864 -5.803 h1 442 NIL_442    0.061
6326 H1XT 12.754 22.284 -5.196 h1 442 NIL_442    0.050
6327 H1XU 11.127 22.946 -5.310 h1 442 NIL_442    0.050
6328 H1XV 14.286 25.040 -4.320 hc 442 NIL_442    0.032
6329 H1XW 13.038 26.124 -3.716 hc 442 NIL_442    0.032
6330 C1HQ 19.129 34.232 17.276 c3 443 NIL_443    0.129
6331 C1HR 18.841 33.124 16.246 c3 443 NIL_443    0.006
6332 C1HS 20.608 33.959 17.652 c3 443 NIL_443    0.045
6333 N0D2 18.981 35.562 16.653 n 443 NIL_443   -0.298
6334 C1HT 18.188 34.029 18.468 c 443 NIL_443    0.510
6335 C1HU 19.732 31.961 16.696 c3 443 NIL_443    0.105
6336 N0D3 20.932 32.586 17.234 n 443 NIL_443   -0.285
6337 H1VX 19.792 35.942 16.188 hn 443 NIL_443    0.151
6338 O0CE 18.433 33.268 19.386 o 443 NIL_443   -0.545
6339 C1HV 19.980 30.938 15.613 c 443 NIL_443    0.510
6340 O0CF 19.086 30.619 14.852 o 443 NIL_443   -0.549
6341 H1VY 19.247 31.427 17.518 h1 443 NIL_443    0.061
6342 H1VZ 21.266 34.644 17.109 h1 443 NIL_443    0.050
6343 H1W0 20.779 34.078 18.725 h1 443 NIL_443    0.050
6344 H1W1 19.148 33.451 15.248 hc 443 NIL_443    0.032
6345 H1W2 17.785 32.845 16.207 hc 443 NIL_443    0.032
6346 C1G0 16.769 25.443 -2.268 c3 444 NIL_444   -0.064
6347 C1G1 15.631 25.269 -1.244 c3 444 NIL_444   -0.040
6348 C1G2 16.012 24.248 -0.149 c3 444 NIL_444    0.015
6349 H1U0 16.286 23.298 -0.603 h1 444 NIL_444    0.047
6350 H1U1 16.941 24.606 0.300 h1 444 NIL_444    0.047
6351 H1U2 15.387 26.231 -0.790 hc 444 NIL_444    0.028
6352 H1U3 14.744 24.943 -1.777 hc 444 NIL_444    0.028
6353 H1U4 17.674 25.823 -1.793 hc 444 NIL_444    0.023
6354 H1U5 16.472 26.150 -3.046 hc 444 NIL_444    0.023
6355 H1U6 17.007 24.489 -2.742 hc 444 NIL_444    0.023
6356 C1LQ 17.694 33.447 -0.186 c3 445 NIL_445   -0.040
6357 C1LR 16.919 32.367 0.593 c3 445 NIL_445    0.015
6358 C1LS 18.838 32.807 -0.995 c3 445 NIL_445   -0.064
6359 H20P 19.369 33.567 -1.573 hc 445 NIL_445    0.023
6360 H20Q 18.446 32.058 -1.688 hc 445 NIL_445    0.023
6361 H20R 19.555 32.321 -0.329 hc 445 NIL_445    0.023
6362 H20S 16.509 31.656 -0.118 h1 445 NIL_445    0.047
6363 H20T 17.653 31.799 1.171 h1 445 NIL_445    0.047
6364 H20U 18.107 34.182 0.509 hc 445 NIL_445    0.028
6365 H20V 17.029 33.970 -0.873 hc 445 NIL_445    0.028
6366 C1LN 17.944 32.201 -9.030 c3 446 NIL_446    0.015
6367 C1LO 18.538 33.300 -9.945 c3 446 NIL_446   -0.040
6368 C1LP 19.341 34.351 -9.155 c3 446 NIL_446   -0.064
6369 H20I 19.814 35.056 -9.843 hc 446 NIL_446    0.023
6370 H20J 20.125 33.871 -8.565 hc 446 NIL_446    0.023
6371 H20K 18.694 34.914 -8.479 hc 446 NIL_446    0.023
6372 H20L 17.759 33.787 -10.532 hc 446 NIL_446    0.028
6373 H20M 19.204 32.823 -10.666 hc 446 NIL_446    0.028
6374 H20N 17.514 31.429 -9.663 h1 446 NIL_446    0.047
6375 H20O 18.783 31.712 -8.532 h1 446 NIL_446    0.047
6376 C1H8 15.279 33.619 -3.604 c3 447 NIL_447    0.131
6377 C1H9 16.665 33.334 -4.268 c3 447 NIL_447    0.007
6378 C1HA 14.294 33.272 -4.758 c3 447 NIL_447    0.046
6379 N0CW 15.108 35.056 -3.152 n 447 NIL_447   -0.284
6380 C1HB 14.991 32.583 -2.500 c 447 NIL_447    0.510
6381 C1HC 16.430 33.561 -5.775 c3 447 NIL_447    0.105
6382 N0CX 15.050 33.181 -6.015 n 447 NIL_447   -0.285
6383 O0C8 15.309 31.412 -2.606 o 447 NIL_447   -0.544
6384 C1HD 17.419 32.921 -6.721 c 447 NIL_447    0.510
6385 O0C9 18.556 32.672 -6.362 o 447 NIL_447   -0.549
6386 H1VI 16.503 34.622 -6.013 h1 447 NIL_447    0.061
6387 H1VJ 13.816 32.302 -4.591 h1 447 NIL_447    0.050
6388 H1VK 13.509 34.028 -4.843 h1 447 NIL_447    0.050
6389 H1VL 16.968 32.293 -4.136 hc 447 NIL_447    0.032
6390 H1VM 17.470 33.954 -3.869 hc 447 NIL_447    0.032
6391 O0CQ 12.238 36.547 18.870 o 448 NIL_448   -0.557
6392 C1IV 12.588 35.486 18.391 c 448 NIL_448    0.510
6393 C1IW 11.614 34.528 17.699 c3 448 NIL_448    0.090
6394 N0DE 10.575 35.038 16.754 n3 448 NIL_448   -0.290
6395 C1IX 12.277 33.367 16.931 c3 448 NIL_448    0.003
6396 C1IY 10.400 34.010 15.686 c3 448 NIL_448    0.029
6397 C1IZ 11.121 32.712 16.148 c3 448 NIL_448    0.128
6398 N0DF 11.664 31.793 15.088 n 448 NIL_448   -0.275
6399 C1J0 10.267 31.921 17.153 c 448 NIL_448    0.510
6400 O0CR 9.274 32.372 17.692 o 448 NIL_448   -0.545
6401 H1X4 10.891 34.400 14.792 h1 448 NIL_448    0.046
6402 H1X5 9.344 33.836 15.465 h1 448 NIL_448    0.046
6403 H1X6 13.022 33.764 16.237 hc 448 NIL_448    0.032
6404 H1X7 12.774 32.667 17.607 hc 448 NIL_448    0.032
6405 H1X8 11.074 34.074 18.534 h1 448 NIL_448    0.057
6406 C1L4 10.799 25.271 6.077 c3 449 NIL_449   -0.040
6407 C1L5 12.343 25.263 6.032 c3 449 NIL_449    0.015
6408 C1L6 10.260 26.674 5.742 c3 449 NIL_449   -0.064
6409 H1ZL 10.584 26.986 4.746 hc 449 NIL_449    0.023
6410 H1ZM 10.621 27.407 6.468 hc 449 NIL_449    0.023
6411 H1ZN 9.168 26.679 5.767 hc 449 NIL_449    0.023
6412 H1ZO 12.635 25.511 5.014 h1 449 NIL_449    0.047
6413 H1ZP 12.721 26.068 6.670 h1 449 NIL_449    0.047
6414 H1ZQ 10.448 24.984 7.071 hc 449 NIL_449    0.028
6415 H1ZR 10.391 24.552 5.364 hc 449 NIL_449    0.028
6416 C1H1 14.967 22.887 13.161 c 450 NIL_450    0.510
6417 C1H2 16.183 22.526 13.995 c3 450 NIL_450    0.092
6418 O0C6 13.914 23.283 13.623 o 450 NIL_450   -0.557
6419 H1V9 16.321 21.444 13.933 h1 450 NIL_450    0.057
6420 H1VA 17.046 22.970 13.492 h1 450 NIL_450    0.057
6421 O082 47.830 18.310 17.808 o 451 NIL_451   -0.545
6422 C0YT 46.913 17.740 17.246 c 451 NIL_451    0.510
6423 C0YU 47.099 16.415 16.485 c3 451 NIL_451    0.128
6424 C0YV 47.223 15.273 17.516 c3 451 NIL_451    0.003
6425 C0YW 48.524 16.416 15.857 c3 451 NIL_451    0.029
6426 N08H 45.983 16.124 15.517 n 451 NIL_451   -0.275
6427 C0YX 48.686 15.284 18.023 c3 451 NIL_451    0.090
6428 N08I 49.448 15.909 16.899 n3 451 NIL_451   -0.290
6429 C0YY 49.146 13.957 18.640 c 451 NIL_451    0.510
6430 O083 50.315 13.670 18.816 o 451 NIL_451   -0.557
6431 H17T 48.719 15.992 18.857 h1 451 NIL_451    0.057
6432 H17U 48.588 15.756 14.998 h1 451 NIL_451    0.046
6433 H17V 48.819 17.417 15.528 h1 451 NIL_451    0.046
6434 H17W 47.026 14.321 17.020 hc 451 NIL_451    0.032
6435 H17X 46.503 15.378 18.332 hc 451 NIL_451    0.032
6436 H1AH 44.788 8.184 16.851 hn 452 NIL_452    0.151
6437 N09A 45.117 8.985 17.369 n 452 NIL_452   -0.298
6438 C11D 44.188 9.569 18.361 c3 452 NIL_452    0.129
6439 C11E 43.274 10.604 17.666 c3 452 NIL_452    0.006
6440 C11F 43.196 8.480 18.827 c3 452 NIL_452    0.045
6441 C11G 44.923 10.242 19.524 c 452 NIL_452    0.510
6442 C11H 41.986 9.847 17.283 c3 452 NIL_452    0.105
6443 N09B 42.069 8.522 17.894 n 452 NIL_452   -0.285
6444 O08S 44.443 10.355 20.636 o 452 NIL_452   -0.545
6445 C11I 41.668 9.749 15.797 c 452 NIL_452    0.510
6446 O08T 42.103 10.554 14.995 o 452 NIL_452   -0.549
6447 H1AI 41.139 10.372 17.732 h1 452 NIL_452    0.061
6448 H1AJ 43.667 7.492 18.827 h1 452 NIL_452    0.050
6449 H1AK 42.808 8.696 19.825 h1 452 NIL_452    0.050
6450 H1AL 43.769 11.076 16.815 hc 452 NIL_452    0.032
6451 H1AM 43.006 11.400 18.366 hc 452 NIL_452    0.032
6452 C12P 42.595 14.790 0.858 c3 453 NIL_453   -0.064
6453 C12Q 42.666 13.256 0.778 c3 453 NIL_453   -0.040
6454 C12R 44.034 12.677 0.337 c3 453 NIL_453    0.015
6455 H1CV 43.961 11.585 0.349 h1 453 NIL_453    0.047
6456 H1CW 44.243 12.944 -0.698 h1 453 NIL_453    0.047
6457 H1CX 42.411 12.857 1.760 hc 453 NIL_453    0.028
6458 H1CY 41.897 12.917 0.090 hc 453 NIL_453    0.028
6459 H1CZ 42.661 15.232 -0.137 hc 453 NIL_453    0.023
6460 H1D0 43.394 15.189 1.486 hc 453 NIL_453    0.023
6461 H1D1 41.640 15.092 1.295 hc 453 NIL_453    0.023
6462 C11M 35.549 10.981 6.077 c3 454 NIL_454   -0.040
6463 C11N 37.093 10.973 6.032 c3 454 NIL_454    0.015
6464 C11O 35.010 12.384 5.742 c3 454 NIL_454   -0.064
6465 H1AU 35.334 12.696 4.746 hc 454 NIL_454    0.023
6466 H1AV 35.371 13.117 6.468 hc 454 NIL_454    0.023
6467 H1AW 33.918 12.389 5.767 hc 454 NIL_454    0.023
6468 H1AX 37.385 11.221 5.014 h1 454 NIL_454    0.047
6469 H1AY 37.471 11.778 6.670 h1 454 NIL_454    0.047
6470 H1AZ 35.198 10.694 7.071 hc 454 NIL_454    0.028
6471 H1B0 35.141 10.262 5.364 hc 454 NIL_454    0.028
6472 C10C 46.398 14.797 9.836 c3 455 NIL_455   -0.010
6473 C10D 46.839 15.105 8.383 c3 455 NIL_455    0.101
6474 C10E 47.493 15.152 10.865 c3 455 NIL_455    0.013
6475 C10F 47.763 14.044 7.797 c 455 NIL_455    0.510
6476 N08W 45.676 15.415 7.557 n 455 NIL_455   -0.302
6477 N08X 47.078 14.827 12.232 n 455 NIL_455   -0.314
6478 O08H 48.536 13.435 8.513 o 455 NIL_455   -0.550
6479 H19B 48.410 14.597 10.658 h1 455 NIL_455    0.047
6480 H19C 47.720 16.218 10.793 h1 455 NIL_455    0.047
6481 H19D 47.431 16.023 8.399 h1 455 NIL_455    0.061
6482 H19E 46.121 13.744 9.924 hc 455 NIL_455    0.031
6483 H19F 45.506 15.383 10.080 hc 455 NIL_455    0.031
6484 H19G 47.084 13.853 12.492 hn 455 NIL_455    0.149
6485 H19H 44.959 15.974 7.993 hn 455 NIL_455    0.150
6486 C12L 38.402 4.798 17.373 c3 456 NIL_456   -0.004
6487 C12M 38.312 3.681 16.315 c3 456 NIL_456   -0.052
6488 H1CL 38.250 2.707 16.805 hc 456 NIL_456    0.024
6489 H1CM 39.189 3.677 15.664 hc 456 NIL_456    0.024
6490 H1CN 37.420 3.811 15.699 hc 456 NIL_456    0.024
6491 H1CO 37.521 4.729 18.016 h1 456 NIL_456    0.043
6492 H1CP 39.290 4.642 17.993 h1 456 NIL_456    0.043
6493 C106 40.135 20.074 -8.981 c3 457 NIL_457    0.007
6494 C107 39.357 19.893 -10.293 c3 457 NIL_457    0.105
6495 C108 40.292 18.636 -8.404 c3 457 NIL_457    0.131
6496 N08U 39.774 18.593 -10.770 n 457 NIL_457   -0.285
6497 C109 39.538 21.052 -11.235 c 457 NIL_457    0.510
6498 C10A 39.787 17.735 -9.580 c3 457 NIL_457    0.046
6499 N08V 41.724 18.376 -7.988 n 457 NIL_457   -0.284
6500 C10B 39.300 18.586 -7.231 c 457 NIL_457    0.510
6501 O08F 39.272 22.172 -10.839 o 457 NIL_457   -0.549
6502 O08G 38.115 18.340 -7.361 o 457 NIL_457   -0.544
6503 H196 40.368 16.826 -9.721 h1 457 NIL_457    0.050
6504 H197 38.755 17.413 -9.426 h1 457 NIL_457    0.050
6505 H198 38.286 19.836 -10.077 h1 457 NIL_457    0.061
6506 H199 41.107 20.527 -9.182 hc 457 NIL_457    0.032
6507 H19A 39.603 20.752 -8.308 hc 457 NIL_457    0.032
6508 C10L 47.085 15.076 4.354 c3 458 NIL_458    0.046
6509 C10M 46.584 14.241 5.565 c3 458 NIL_458    0.131
6510 N090 46.647 14.413 3.124 n 458 NIL_458   -0.285
6511 C10N 45.851 13.026 4.917 c3 458 NIL_458    0.007
6512 N091 47.708 13.794 6.458 n 458 NIL_458   -0.284
6513 C10O 45.520 15.099 6.261 c 458 NIL_458    0.510
6514 C10P 46.247 13.047 3.429 c3 458 NIL_458    0.105
6515 O08J 44.537 15.516 5.677 o 458 NIL_458   -0.547
6516 C10Q 45.203 12.496 2.484 c 458 NIL_458    0.510
6517 O08K 44.458 11.598 2.831 o 458 NIL_458   -0.549
6518 H19P 47.124 12.414 3.276 h1 458 NIL_458    0.061
6519 H19Q 44.766 13.125 5.002 hc 458 NIL_458    0.032
6520 H19R 46.119 12.073 5.380 hc 458 NIL_458    0.032
6521 H19S 46.687 16.094 4.377 h1 458 NIL_458    0.050
6522 H19T 48.170 15.142 4.344 h1 458 NIL_458    0.050
6523 C0XJ 39.717 8.597 13.161 c 459 NIL_459    0.510
6524 C0XK 40.933 8.236 13.995 c3 459 NIL_459    0.092
6525 O07O 38.664 8.993 13.623 o 459 NIL_459   -0.557
6526 H16I 41.071 7.154 13.933 h1 459 NIL_459    0.057
6527 H16J 41.796 8.680 13.492 h1 459 NIL_459    0.057
6528 C122 40.438 21.850 -4.000 c3 460 NIL_460    0.015
6529 C123 39.473 22.379 -5.085 c3 460 NIL_460   -0.040
6530 C124 40.129 23.510 -5.895 c3 460 NIL_460   -0.064
6531 H1BK 39.422 23.906 -6.628 hc 460 NIL_460    0.023
6532 H1BL 41.007 23.138 -6.428 hc 460 NIL_460    0.023
6533 H1BM 40.439 24.328 -5.240 hc 460 NIL_460    0.023
6534 H1BN 38.560 22.752 -4.613 hc 460 NIL_460    0.028
6535 H1BO 39.183 21.584 -5.772 hc 460 NIL_460    0.028
6536 H1BP 41.383 21.555 -4.449 h1 460 NIL_460    0.047
6537 H1BQ 40.703 22.692 -3.352 h1 460 NIL_460    0.047
6538 C0WL 44.696 11.153 -16.369 c 461 NIL_461    0.510
6539 C0WM 45.844 11.670 -15.513 c3 461 NIL_461    0.105
6540 O07I 43.771 11.857 -16.727 o 461 NIL_461   -0.553
6541 N07X 44.788 9.838 -16.683 n 461 NIL_461   -0.310
6542 N07Y 46.056 13.134 -15.566 n 461 NIL_461   -0.283
6543 C0WN 45.622 11.287 -14.032 c3 461 NIL_461    0.007
6544 C0WO 43.934 9.115 -17.637 c3 461 NIL_461    0.036
6545 C0WP 46.193 13.623 -14.191 c3 461 NIL_461    0.046
6546 C0WQ 46.255 12.438 -13.202 c3 461 NIL_461    0.131
6547 C0WR 42.437 9.299 -17.471 c2 461 NIL_461   -0.031
6548 N07Z 47.684 12.173 -12.782 n 461 NIL_461   -0.284
6549 C0WS 45.325 12.857 -12.049 c 461 NIL_461    0.510
6550 C0WT 41.752 8.633 -16.538 c2 461 NIL_461   -0.057
6551 C0WU 41.777 10.153 -18.254 c2 461 NIL_461   -0.057
6552 C0WV 48.578 11.457 -13.742 c3 461 NIL_461    0.015
6553 O07J 44.111 12.821 -12.136 o 461 NIL_461   -0.544
6554 C0WW 40.445 8.846 -16.366 c2 461 NIL_461   -0.049
6555 C0WX 40.474 10.370 -18.082 c2 461 NIL_461   -0.049
6556 C0WY 49.427 12.385 -14.642 c3 461 NIL_461   -0.040
6557 C0WZ 39.785 9.740 -17.120 c2 461 NIL_461    0.037
6558 C0X0 50.218 11.567 -15.683 c3 461 NIL_461   -0.064
6559 C0X1 38.421 10.125 -16.906 c 461 NIL_461    0.510
6560 O07K 37.789 10.460 -17.892 o 461 NIL_461   -0.535
6561 H15G 50.874 10.844 -15.192 hc 461 NIL_461    0.023
6562 H15H 50.835 12.226 -16.298 hc 461 NIL_461    0.023
6563 H15I 49.539 11.023 -16.344 hc 461 NIL_461    0.023
6564 H15J 50.127 12.957 -14.028 hc 461 NIL_461    0.028
6565 H15K 48.797 13.101 -15.171 hc 461 NIL_461    0.028
6566 H15L 39.997 11.115 -18.715 ha 461 NIL_461    0.063
6567 H15M 39.940 8.266 -15.605 ha 461 NIL_461    0.063
6568 H15N 48.028 10.766 -14.372 h1 461 NIL_461    0.047
6569 H15O 49.265 10.827 -13.167 h1 461 NIL_461    0.047
6570 H15P 42.308 10.712 -19.020 ha 461 NIL_461    0.063
6571 H15Q 42.265 7.924 -15.890 ha 461 NIL_461    0.063
6572 H15R 45.318 14.243 -13.976 h1 461 NIL_461    0.050
6573 H15S 47.099 14.228 -14.096 h1 461 NIL_461    0.050
6574 H15T 44.176 8.053 -17.554 h1 461 NIL_461    0.052
6575 H15U 44.228 9.433 -18.639 h1 461 NIL_461    0.052
6576 H15V 44.547 11.211 -13.856 hc 461 NIL_461    0.032
6577 H15W 46.034 10.306 -13.783 hc 461 NIL_461    0.032
6578 H15X 46.753 11.195 -15.887 h1 461 NIL_461    0.061
6579 H15Y 45.576 9.325 -16.317 hn 461 NIL_461    0.150
6580 C11S 38.829 17.941 -0.170 c3 462 NIL_462    0.046
6581 C11T 39.248 18.873 1.013 c3 462 NIL_462    0.131
6582 N09C 39.077 18.706 -1.396 n 462 NIL_462   -0.285
6583 C11U 39.189 20.285 0.361 c3 462 NIL_462    0.007
6584 C11V 38.159 18.857 2.102 c 462 NIL_462    0.510
6585 N09D 40.636 18.590 1.543 n 462 NIL_462   -0.284
6586 C11W 38.697 20.067 -1.082 c3 462 NIL_462    0.105
6587 O08U 36.975 18.751 1.844 o 462 NIL_462   -0.544
6588 C11X 39.185 21.137 -2.026 c 462 NIL_462    0.510
6589 O08V 38.969 22.304 -1.754 o 462 NIL_462   -0.549
6590 H1B8 37.604 20.113 -1.105 h1 462 NIL_462    0.061
6591 H1B9 40.175 20.754 0.359 hc 462 NIL_462    0.032
6592 H1BA 38.515 20.966 0.887 hc 462 NIL_462    0.032
6593 H1BB 39.338 16.977 -0.158 h1 462 NIL_462    0.050
6594 H1BC 37.758 17.730 -0.149 h1 462 NIL_462    0.050
6595 C10R 37.950 10.478 -8.570 c3 463 NIL_463    0.131
6596 C10S 36.608 10.707 -9.336 c3 463 NIL_463    0.007
6597 C10T 38.865 9.867 -9.677 c3 463 NIL_463    0.046
6598 N092 38.513 11.736 -7.955 n 463 NIL_463   -0.284
6599 C10U 37.610 9.386 -7.543 c 463 NIL_463    0.510
6600 C10V 36.684 9.653 -10.452 c3 463 NIL_463    0.105
6601 N093 38.058 9.771 -10.902 n 463 NIL_463   -0.285
6602 O08L 37.530 8.205 -7.830 o 463 NIL_463   -0.544
6603 C10W 35.638 9.690 -11.544 c 463 NIL_463    0.510
6604 O08M 34.454 9.758 -11.281 o 463 NIL_463   -0.549
6605 H19U 36.564 8.656 -10.019 h1 463 NIL_463    0.061
6606 H19V 39.751 10.462 -9.855 h1 463 NIL_463    0.050
6607 H19W 39.213 8.867 -9.408 h1 463 NIL_463    0.050
6608 H19X 36.551 11.706 -9.774 hc 463 NIL_463    0.032
6609 H19Y 35.735 10.562 -8.694 hc 463 NIL_463    0.032
6610 C113 47.384 13.254 0.176 c3 464 NIL_464    0.007
6611 C114 47.783 14.013 -1.098 c3 464 NIL_464    0.105
6612 C115 46.170 14.043 0.747 c3 464 NIL_464    0.131
6613 N096 46.505 14.416 -1.637 n 464 NIL_464   -0.285
6614 C116 48.682 13.206 -2.002 c 464 NIL_464    0.510
6615 C117 45.754 14.923 -0.484 c3 464 NIL_464    0.046
6616 C118 46.718 14.929 1.876 c 464 NIL_464    0.510
6617 N097 45.129 13.076 1.253 n 464 NIL_464   -0.284
6618 O08P 49.788 12.897 -1.599 o 464 NIL_464   -0.549
6619 O08Q 47.198 16.031 1.690 o 464 NIL_464   -0.544
6620 H1A5 44.690 14.910 -0.686 h1 464 NIL_464    0.050
6621 H1A6 46.030 15.971 -0.349 h1 464 NIL_464    0.050
6622 H1A7 48.339 14.916 -0.830 h1 464 NIL_464    0.061
6623 H1A8 47.086 12.236 -0.091 hc 464 NIL_464    0.032
6624 H1A9 48.219 13.191 0.880 hc 464 NIL_464    0.032
6625 C0Y8 43.879 19.942 17.276 c3 465 NIL_465    0.129
6626 C0Y9 43.591 18.834 16.246 c3 465 NIL_465    0.006
6627 C0YA 45.358 19.669 17.652 c3 465 NIL_465    0.045
6628 N08B 43.731 21.272 16.653 n 465 NIL_465   -0.298
6629 C0YB 42.938 19.739 18.468 c 465 NIL_465    0.510
6630 C0YC 44.482 17.671 16.696 c3 465 NIL_465    0.105
6631 N08C 45.682 18.296 17.234 n 465 NIL_465   -0.285
6632 H176 44.542 21.652 16.188 hn 465 NIL_465    0.151
6633 O07W 43.183 18.978 19.386 o 465 NIL_465   -0.545
6634 C0YD 44.730 16.648 15.613 c 465 NIL_465    0.510
6635 O07X 43.836 16.329 14.852 o 465 NIL_465   -0.549
6636 H177 43.997 17.137 17.518 h1 465 NIL_465    0.061
6637 H178 46.016 20.354 17.109 h1 465 NIL_465    0.050
6638 H179 45.529 19.788 18.725 h1 465 NIL_465    0.050
6639 H17A 43.898 19.161 15.248 hc 465 NIL_465    0.032
6640 H17B 42.535 18.555 16.207 hc 465 NIL_465    0.032
6641 C0ZB 50.749 15.371 16.418 c3 466 NIL_466   -0.004
6642 C0ZC 50.624 14.054 15.619 c3 466 NIL_466   -0.052
6643 H188 51.618 13.690 15.355 hc 466 NIL_466    0.024
6644 H189 50.068 14.201 14.691 hc 466 NIL_466    0.024
6645 H18A 50.127 13.275 16.197 hc 466 NIL_466    0.024
6646 H18B 51.422 15.226 17.264 h1 466 NIL_466    0.043
6647 H18C 51.211 16.120 15.770 h1 466 NIL_466    0.043
6648 C0XL 46.787 10.663 17.925 c3 467 NIL_467    0.104
6649 N083 46.167 10.697 19.250 n 467 NIL_467   -0.286
6650 C0XM 48.298 10.797 18.175 c3 467 NIL_467   -0.005
6651 C0XN 46.347 9.475 17.092 c 467 NIL_467    0.510
6652 C0XO 47.133 11.223 20.223 c3 467 NIL_467    0.034
6653 C0XP 48.348 11.710 19.413 c3 467 NIL_467    0.040
6654 O07P 47.046 8.967 16.239 o 467 NIL_467   -0.552
6655 N084 48.163 13.115 19.024 n 467 NIL_467   -0.310
6656 H16K 49.280 11.592 19.975 h1 467 NIL_467    0.052
6657 H16L 47.436 10.408 20.885 h1 467 NIL_467    0.049
6658 H16M 46.692 12.032 20.813 h1 467 NIL_467    0.049
6659 H16N 48.830 11.216 17.315 hc 467 NIL_467    0.031
6660 H16O 48.730 9.824 18.420 hc 467 NIL_467    0.031
6661 H16P 46.440 11.551 17.387 h1 467 NIL_467    0.061
6662 H16Q 47.209 13.421 18.902 hn 467 NIL_467    0.150
6663 O088 36.988 22.257 18.870 o 468 NIL_468   -0.557
6664 C0ZD 37.338 21.196 18.391 c 468 NIL_468    0.510
6665 C0ZE 36.364 20.238 17.699 c3 468 NIL_468    0.090
6666 N08N 35.325 20.748 16.754 n3 468 NIL_468   -0.290
6667 C0ZF 37.027 19.077 16.931 c3 468 NIL_468    0.003
6668 C0ZG 35.150 19.720 15.686 c3 468 NIL_468    0.029
6669 C0ZH 35.871 18.422 16.148 c3 468 NIL_468    0.128
6670 N08O 36.414 17.503 15.088 n 468 NIL_468   -0.275
6671 C0ZI 35.017 17.631 17.153 c 468 NIL_468    0.510
6672 O089 34.024 18.082 17.692 o 468 NIL_468   -0.545
6673 H18D 35.641 20.110 14.792 h1 468 NIL_468    0.046
6674 H18E 34.094 19.546 15.465 h1 468 NIL_468    0.046
6675 H18F 37.772 19.474 16.237 hc 468 NIL_468    0.032
6676 H18G 37.524 18.377 17.607 hc 468 NIL_468    0.032
6677 H18H 35.824 19.784 18.534 h1 468 NIL_468    0.057
6678 C0XQ 40.029 19.329 -3.604 c3 469 NIL_469    0.131
6679 C0XR 41.415 19.044 -4.268 c3 469 NIL_469    0.007
6680 C0XS 39.044 18.982 -4.758 c3 469 NIL_469    0.046
6681 N085 39.858 20.766 -3.152 n 469 NIL_469   -0.284
6682 C0XT 39.741 18.293 -2.500 c 469 NIL_469    0.510
6683 C0XU 41.180 19.271 -5.775 c3 469 NIL_469    0.105
6684 N086 39.800 18.891 -6.015 n 469 NIL_469   -0.285
6685 O07Q 40.059 17.122 -2.606 o 469 NIL_469   -0.544
6686 C0XV 42.169 18.631 -6.721 c 469 NIL_469    0.510
6687 O07R 43.306 18.382 -6.362 o 469 NIL_469   -0.549
6688 H16R 41.253 20.332 -6.013 h1 469 NIL_469    0.061
6689 H16S 38.566 18.012 -4.591 h1 469 NIL_469    0.050
6690 H16T 38.259 19.738 -4.843 h1 469 NIL_469    0.050
6691 H16U 41.718 18.003 -4.136 hc 469 NIL_469    0.032
6692 H16V 42.220 19.664 -3.869 hc 469 NIL_469    0.032
6693 C12G 33.735 12.871 -4.974 c3 470 NIL_470   -0.064
6694 C12H 34.717 12.305 -3.931 c3 470 NIL_470   -0.040
6695 C12I 34.810 10.762 -4.024 c3 470 NIL_470    0.015
6696 H1CC 33.848 10.338 -3.720 h1 470 NIL_470    0.047
6697 H1CD 34.938 10.490 -5.071 h1 470 NIL_470    0.047
6698 H1CE 35.695 12.760 -4.089 hc 470 NIL_470    0.028
6699 H1CF 34.388 12.600 -2.932 hc 470 NIL_470    0.028
6700 H1CG 32.735 12.452 -4.840 hc 470 NIL_470    0.023
6701 H1CH 34.072 12.644 -5.989 hc 470 NIL_470    0.023
6702 H1CI 33.666 13.955 -4.872 hc 470 NIL_470    0.023
6703 C12N 34.326 22.599 15.353 c3 471 NIL_471   -0.052
6704 C12O 35.520 22.120 16.205 c3 471 NIL_471   -0.004
6705 H1CQ 36.429 22.143 15.597 h1 471 NIL_471    0.043
6706 H1CR 35.632 22.839 17.017 h1 471 NIL_471    0.043
6707 H1CS 33.420 22.652 15.961 hc 471 NIL_471    0.024
6708 H1CT 34.140 21.935 14.506 hc 471 NIL_471    0.024
6709 H1CU 34.530 23.597 14.959 hc 471 NIL_471    0.024
6710 C128 42.444 19.157 -0.186 c3 472 NIL_472   -0.040
6711 C129 41.669 18.077 0.593 c3 472 NIL_472    0.015
6712 C12A 43.588 18.517 -0.995 c3 472 NIL_472   -0.064
6713 H1BY 44.119 19.277 -1.573 hc 472 NIL_472    0.023
6714 H1BZ 43.196 17.768 -1.688 hc 472 NIL_472    0.023
6715 H1C0 44.305 18.031 -0.329 hc 472 NIL_472    0.023
6716 H1C1 41.259 17.366 -0.118 h1 472 NIL_472    0.047
6717 H1C2 42.403 17.509 1.171 h1 472 NIL_472    0.047
6718 H1C3 42.857 19.892 0.509 hc 472 NIL_472    0.028
6719 H1C4 41.779 19.680 -0.873 hc 472 NIL_472    0.028
6720 C119 38.906 8.626 10.789 c3 473 NIL_473    0.013
6721 N098 39.915 8.427 11.835 n 473 NIL_473   -0.314
6722 C11A 39.515 8.391 9.387 c3 473 NIL_473   -0.010
6723 C11B 38.456 8.138 8.282 c3 473 NIL_473    0.101
6724 C11C 37.784 9.421 7.815 c 473 NIL_473    0.510
6725 N099 39.053 7.332 7.220 n 473 NIL_473   -0.302
6726 O08R 37.295 10.176 8.634 o 473 NIL_473   -0.550
6727 H1AA 37.653 7.526 8.704 h1 473 NIL_473    0.061
6728 H1AB 40.158 9.231 9.110 hc 473 NIL_473    0.031
6729 H1AC 40.160 7.510 9.451 hc 473 NIL_473    0.031
6730 H1AD 38.508 9.641 10.862 h1 473 NIL_473    0.047
6731 H1AE 38.094 7.913 10.961 h1 473 NIL_473    0.047
6732 H1AF 39.491 6.473 7.517 hn 473 NIL_473    0.150
6733 H1AG 40.821 8.101 11.530 hn 473 NIL_473    0.149
6734 C0Y2 37.365 10.042 0.086 c3 474 NIL_474    0.007
6735 C0Y3 36.610 9.249 -0.989 c3 474 NIL_474    0.105
6736 C0Y4 38.456 9.041 0.574 c3 474 NIL_474    0.131
6737 N089 37.668 8.557 -1.694 n 474 NIL_474   -0.285
6738 C0Y5 35.655 10.065 -1.826 c 474 NIL_474    0.510
6739 C0Y6 38.543 8.034 -0.632 c3 474 NIL_474    0.046
6740 C0Y7 37.799 8.346 1.781 c 474 NIL_474    0.510
6741 N08A 39.743 9.757 0.929 n 474 NIL_474   -0.284
6742 O07U 34.681 10.565 -1.295 o 474 NIL_474   -0.549
6743 O07V 37.011 7.424 1.676 o 474 NIL_474   -0.544
6744 H171 39.550 7.871 -1.002 h1 474 NIL_474    0.050
6745 H172 38.171 7.046 -0.352 h1 474 NIL_474    0.050
6746 H173 35.989 8.493 -0.502 h1 474 NIL_474    0.061
6747 H174 37.803 10.941 -0.352 hc 474 NIL_474    0.032
6748 H175 36.697 10.364 0.889 hc 474 NIL_474    0.032
6749 C10G 40.851 20.621 19.561 c3 475 NIL_475    0.034
6750 C10H 39.723 21.548 19.068 c3 475 NIL_475    0.040
6751 N08Y 41.808 20.484 18.457 n 475 NIL_475   -0.286
6752 C10I 40.423 22.372 17.976 c3 475 NIL_475   -0.005
6753 N08Z 38.616 20.765 18.504 n 475 NIL_475   -0.310
6754 C10J 41.402 21.362 17.358 c3 475 NIL_475    0.104
6755 C10K 42.573 21.966 16.606 c 475 NIL_475    0.510
6756 O08I 42.500 23.019 16.005 o 475 NIL_475   -0.552
6757 H19I 40.864 20.743 16.634 h1 475 NIL_475    0.061
6758 H19J 39.726 22.778 17.238 hc 475 NIL_475    0.031
6759 H19K 40.974 23.197 18.436 hc 475 NIL_475    0.031
6760 H19L 39.357 22.185 19.879 h1 475 NIL_475    0.052
6761 H19M 41.365 21.086 20.407 h1 475 NIL_475    0.049
6762 H19N 40.464 19.643 19.861 h1 475 NIL_475    0.049
6763 H19O 38.851 19.859 18.127 hn 475 NIL_475    0.150
6764 C0XW 39.133 7.653 5.917 c 476 NIL_476    0.510
6765 C0XX 38.435 8.919 5.412 c3 476 NIL_476    0.131
6766 O07S 39.735 6.903 5.172 o 476 NIL_476   -0.547
6767 C0XY 39.499 9.788 4.671 c3 476 NIL_476    0.007
6768 C0XZ 37.488 8.441 4.274 c3 476 NIL_476    0.046
6769 N087 37.719 9.697 6.479 n 476 NIL_476   -0.284
6770 C0Y0 38.945 9.987 3.247 c3 476 NIL_476    0.105
6771 N088 38.099 8.838 3.001 n 476 NIL_476   -0.285
6772 C0Y1 39.989 10.240 2.183 c 476 NIL_476    0.510
6773 O07T 41.006 10.844 2.464 o 476 NIL_476   -0.549
6774 H16W 38.297 10.865 3.221 h1 476 NIL_476    0.061
6775 H16X 37.339 7.357 4.299 h1 476 NIL_476    0.050
6776 H16Y 36.511 8.920 4.344 h1 476 NIL_476    0.050
6777 H16Z 40.461 9.272 4.615 hc 476 NIL_476    0.032
6778 H170 39.682 10.746 5.163 hc 476 NIL_476    0.032
6779 N094 34.135 13.378 17.143 n 477 NIL_477   -0.298
6780 C10X 35.258 13.991 17.883 c3 477 NIL_477    0.129
6781 H19Z 33.474 14.007 16.712 hn 477 NIL_477    0.151
6782 C10Y 36.434 14.236 16.903 c3 477 NIL_477    0.006
6783 C10Z 34.837 15.412 18.340 c3 477 NIL_477    0.045
6784 C110 35.742 13.102 19.037 c 477 NIL_477    0.510
6785 C111 36.616 15.760 16.804 c3 477 NIL_477    0.105
6786 N095 35.426 16.363 17.394 n 477 NIL_477   -0.285
6787 O08N 36.271 13.542 20.040 o 477 NIL_477   -0.545
6788 C112 36.904 16.270 15.402 c 477 NIL_477    0.510
6789 O08O 37.512 15.592 14.594 o 477 NIL_477   -0.549
6790 H1A0 37.470 16.052 17.422 h1 477 NIL_477    0.061
6791 H1A1 33.748 15.515 18.363 h1 477 NIL_477    0.050
6792 H1A2 35.235 15.644 19.331 h1 477 NIL_477    0.050
6793 H1A3 36.203 13.810 15.922 hc 477 NIL_477    0.032
6794 H1A4 37.362 13.772 17.248 hc 477 NIL_477    0.032
6795 C11J 45.944 8.887 -9.057 c3 478 NIL_478   -0.064
6796 C11K 45.205 9.959 -9.881 c3 478 NIL_478   -0.040
6797 C11L 44.424 10.957 -8.992 c3 478 NIL_478    0.015
6798 H1AN 43.831 11.598 -9.638 h1 478 NIL_478    0.047
6799 H1AO 43.686 10.379 -8.430 h1 478 NIL_478    0.047
6800 H1AP 45.909 10.481 -10.530 hc 478 NIL_478    0.028
6801 H1AQ 44.495 9.463 -10.545 hc 478 NIL_478    0.028
6802 H1AR 46.404 8.154 -9.723 hc 478 NIL_478    0.023
6803 H1AS 45.248 8.360 -8.400 hc 478 NIL_478    0.023
6804 H1AT 46.729 9.333 -8.442 hc 478 NIL_478    0.023
6805 C0Z5 46.962 14.183 -5.009 c3 479 NIL_479    0.046
6806 C0Z6 46.872 13.226 -3.786 c3 479 NIL_479    0.131
6807 N08L 46.523 13.451 -6.201 n 479 NIL_479   -0.285
6808 C0Z7 46.109 11.991 -4.358 c3 479 NIL_479    0.007
6809 N08M 48.234 12.853 -3.240 n 479 NIL_479   -0.284
6810 C0Z8 45.964 13.973 -2.793 c 479 NIL_479    0.510
6811 C0Z9 46.371 12.046 -5.873 c3 479 NIL_479    0.105
6812 O086 44.795 14.207 -3.044 o 479 NIL_479   -0.544
6813 C0ZA 45.384 11.305 -6.745 c 479 NIL_479    0.510
6814 O087 44.769 10.348 -6.312 o 479 NIL_479   -0.549
6815 H183 47.326 11.575 -6.107 h1 479 NIL_479    0.061
6816 H184 45.033 12.066 -4.188 hc 479 NIL_479    0.032
6817 H185 46.436 11.046 -3.916 hc 479 NIL_479    0.032
6818 H186 46.301 15.047 -4.891 h1 479 NIL_479    0.050
6819 H187 47.977 14.561 -5.143 h1 479 NIL_479    0.050
6820 C0X2 38.255 17.672 -16.756 c2 480 NIL_480    0.037
6821 C0X3 39.248 18.693 -16.607 c 480 NIL_480    0.510
6822 C0X4 37.290 17.419 -15.857 c2 480 NIL_480   -0.049
6823 C0X5 38.331 16.878 -17.834 c2 480 NIL_480   -0.049
6824 O07L 39.661 19.195 -17.639 o 480 NIL_480   -0.535
6825 C0X6 36.449 16.395 -16.026 c2 480 NIL_480   -0.057
6826 C0X7 37.495 15.855 -17.995 c2 480 NIL_480   -0.057
6827 C0X8 36.551 15.594 -17.088 c2 480 NIL_480   -0.031
6828 C0X9 35.629 14.405 -17.271 c3 480 NIL_480    0.036
6829 N080 35.831 13.274 -16.356 n 480 NIL_480   -0.310
6830 C0XA 37.009 12.651 -16.113 c 480 NIL_480    0.510
6831 C0XB 36.867 11.341 -15.348 c3 480 NIL_480    0.105
6832 O07M 38.083 13.097 -16.472 o 480 NIL_480   -0.553
6833 N081 37.840 10.277 -15.678 n 480 NIL_480   -0.283
6834 C0XC 37.008 11.574 -13.832 c3 480 NIL_480    0.007
6835 C0XD 38.129 9.542 -14.436 c3 480 NIL_480    0.046
6836 C0XE 37.373 10.191 -13.243 c3 480 NIL_480    0.131
6837 N082 36.101 9.526 -12.813 n 480 NIL_480   -0.284
6838 C0XF 38.389 10.324 -12.094 c 480 NIL_480    0.510
6839 C0XG 35.208 8.976 -13.863 c3 480 NIL_480    0.015
6840 O07N 39.461 10.880 -12.238 o 480 NIL_480   -0.544
6841 C0XH 34.795 7.509 -13.605 c3 480 NIL_480   -0.040
6842 C0XI 35.988 6.535 -13.611 c3 480 NIL_480   -0.064
6843 H15Z 36.747 6.833 -12.885 hc 480 NIL_480    0.023
6844 H160 36.447 6.495 -14.600 hc 480 NIL_480    0.023
6845 H161 35.648 5.531 -13.348 hc 480 NIL_480    0.023
6846 H162 34.084 7.205 -14.375 hc 480 NIL_480    0.028
6847 H163 34.275 7.434 -12.648 hc 480 NIL_480    0.028
6848 H164 35.682 9.004 -14.842 h1 480 NIL_480    0.047
6849 H165 34.312 9.602 -13.912 h1 480 NIL_480    0.047
6850 H166 39.200 9.617 -14.251 h1 480 NIL_480    0.050
6851 H167 37.859 8.488 -14.555 h1 480 NIL_480    0.050
6852 H168 37.811 12.294 -13.649 hc 480 NIL_480    0.032
6853 H169 36.089 11.980 -13.403 hc 480 NIL_480    0.032
6854 H16A 35.869 10.955 -15.568 h1 480 NIL_480    0.061
6855 H16B 34.595 14.739 -17.161 h1 480 NIL_480    0.052
6856 H16C 35.731 14.018 -18.289 h1 480 NIL_480    0.052
6857 H16D 37.603 15.218 -18.869 ha 480 NIL_480    0.063
6858 H16E 35.681 16.206 -15.279 ha 480 NIL_480    0.063
6859 H16F 39.107 17.025 -18.582 ha 480 NIL_480    0.063
6860 H16G 37.150 18.039 -14.982 ha 480 NIL_480    0.063
6861 H16H 34.991 12.852 -15.988 hn 480 NIL_480    0.150
6862 C0YN 40.048 18.605 5.203 c3 481 NIL_481    0.007
6863 C0YO 39.924 19.251 3.810 c3 481 NIL_481    0.105
6864 C0YP 38.625 18.711 5.825 c3 481 NIL_481    0.131
6865 N08F 38.561 18.985 3.387 n 481 NIL_481   -0.285
6866 C0YQ 40.999 18.823 2.837 c 481 NIL_481    0.510
6867 C0YR 37.704 18.894 4.581 c3 481 NIL_481    0.046
6868 N08G 38.494 19.849 6.808 n 481 NIL_481   -0.284
6869 C0YS 38.260 17.336 6.404 c 481 NIL_481    0.510
6870 O080 42.146 18.693 3.223 o 481 NIL_481   -0.549
6871 O081 38.283 16.318 5.737 o 481 NIL_481   -0.547
6872 H17O 37.024 18.045 4.458 h1 481 NIL_481    0.050
6873 H17P 37.086 19.787 4.673 h1 481 NIL_481    0.050
6874 H17Q 40.024 20.335 3.885 h1 481 NIL_481    0.061
6875 H17R 40.342 17.561 5.068 hc 481 NIL_481    0.032
6876 H17S 40.821 19.074 5.816 hc 481 NIL_481    0.032
6877 C12V 41.339 13.092 -7.753 c3 482 NIL_482   -0.064
6878 C12W 40.565 12.898 -9.072 c3 482 NIL_482   -0.040
6879 C12X 39.023 12.760 -8.917 c3 482 NIL_482    0.015
6880 H1D9 38.623 13.734 -8.622 h1 482 NIL_482    0.047
6881 H1DA 38.614 12.559 -9.909 h1 482 NIL_482    0.047
6882 H1DB 40.760 13.762 -9.711 hc 482 NIL_482    0.028
6883 H1DC 40.981 12.043 -9.602 hc 482 NIL_482    0.028
6884 H1DD 42.408 13.170 -7.965 hc 482 NIL_482    0.023
6885 H1DE 41.193 12.243 -7.081 hc 482 NIL_482    0.023
6886 H1DF 41.023 14.005 -7.245 hc 482 NIL_482    0.023
6887 C0YE 46.356 13.970 -7.434 c 483 NIL_483    0.510
6888 C0YF 45.972 12.976 -8.542 c3 483 NIL_483    0.131
6889 O07Y 46.556 15.154 -7.635 o 483 NIL_483   -0.544
6890 C0YG 47.327 12.592 -9.206 c3 483 NIL_483    0.007
6891 C0YH 45.217 13.719 -9.689 c3 483 NIL_483    0.046
6892 N08D 45.247 11.751 -8.027 n 483 NIL_483   -0.284
6893 C0YI 47.308 13.260 -10.589 c3 483 NIL_483    0.105
6894 N08E 45.901 13.335 -10.925 n 483 NIL_483   -0.285
6895 C0YJ 48.206 12.565 -11.585 c 483 NIL_483    0.510
6896 O07Z 49.373 12.374 -11.299 o 483 NIL_483   -0.549
6897 H17C 47.676 14.287 -10.501 h1 483 NIL_483    0.061
6898 H17D 44.147 13.513 -9.711 h1 483 NIL_483    0.050
6899 H17E 45.317 14.804 -9.605 h1 483 NIL_483    0.050
6900 H17F 47.426 11.512 -9.303 hc 483 NIL_483    0.032
6901 H17G 48.194 12.932 -8.634 hc 483 NIL_483    0.032
6902 C12Y 46.260 15.112 14.469 c3 484 NIL_484    0.092
6903 C12Z 46.669 15.729 13.147 c 484 NIL_484    0.510
6904 O08Z 46.630 16.925 12.923 o 484 NIL_484   -0.557
6905 H1DG 45.364 14.516 14.274 h1 484 NIL_484    0.057
6906 H1DH 47.041 14.415 14.781 h1 484 NIL_484    0.057
6907 O08A 46.282 13.252 -17.753 o 485 NIL_485   -0.535
6908 C0ZJ 46.061 13.866 -16.724 c 485 NIL_485    0.510
6909 C0ZK 45.756 15.267 -16.876 c2 485 NIL_485    0.037
6910 C0ZL 45.307 15.700 -18.067 c2 485 NIL_485   -0.049
6911 C0ZM 45.819 16.177 -15.885 c2 485 NIL_485   -0.049
6912 C0ZN 44.907 16.958 -18.249 c2 485 NIL_485   -0.057
6913 C0ZO 45.421 17.437 -16.070 c2 485 NIL_485   -0.057
6914 C0ZP 44.945 17.839 -17.247 c2 485 NIL_485   -0.031
6915 C0ZQ 44.408 19.245 -17.442 c3 485 NIL_485    0.036
6916 N08P 43.319 19.624 -16.531 n 485 NIL_485   -0.310
6917 C0ZR 42.230 18.873 -16.244 c 485 NIL_485    0.510
6918 C0ZS 41.223 19.563 -15.334 c3 485 NIL_485    0.105
6919 O08B 42.082 17.738 -16.659 o 485 NIL_485   -0.553
6920 N08Q 39.837 19.062 -15.431 n 485 NIL_485   -0.283
6921 C0ZT 41.653 19.416 -13.858 c3 485 NIL_485    0.007
6922 C0ZU 39.291 18.951 -14.072 c3 485 NIL_485    0.046
6923 C0ZV 40.333 19.439 -13.033 c3 485 NIL_485    0.131
6924 N08R 39.993 20.814 -12.499 n 485 NIL_485   -0.284
6925 C0ZW 40.356 18.333 -11.959 c 485 NIL_485    0.510
6926 C0ZX 40.209 21.987 -13.404 c3 485 NIL_485    0.015
6927 O08C 40.838 17.233 -12.167 o 485 NIL_485   -0.544
6928 C0ZY 39.050 22.344 -14.364 c3 485 NIL_485   -0.040
6929 C0ZZ 37.700 22.558 -13.651 c3 485 NIL_485   -0.064
6930 H18I 36.952 22.905 -14.362 hc 485 NIL_485    0.023
6931 H18J 37.795 23.308 -12.863 hc 485 NIL_485    0.023
6932 H18K 37.337 21.628 -13.208 hc 485 NIL_485    0.023
6933 H18L 38.933 21.580 -15.131 hc 485 NIL_485    0.028
6934 H18M 39.315 23.266 -14.886 hc 485 NIL_485    0.028
6935 H18N 41.119 21.874 -13.986 h1 485 NIL_485    0.047
6936 H18O 40.400 22.871 -12.791 h1 485 NIL_485    0.047
6937 H18P 39.041 17.901 -13.895 h1 485 NIL_485    0.050
6938 H18Q 38.377 19.545 -13.989 h1 485 NIL_485    0.050
6939 H18R 42.172 18.460 -13.751 hc 485 NIL_485    0.032
6940 H18S 42.367 20.184 -13.551 hc 485 NIL_485    0.032
6941 H18T 41.209 20.617 -15.619 h1 485 NIL_485    0.061
6942 H18U 45.220 19.965 -17.316 h1 485 NIL_485    0.052
6943 H18V 44.026 19.353 -18.461 h1 485 NIL_485    0.052
6944 H18W 45.463 18.132 -15.234 ha 485 NIL_485    0.063
6945 H18X 44.520 17.254 -19.219 ha 485 NIL_485    0.063
6946 H18Y 46.192 15.945 -14.901 ha 485 NIL_485    0.063
6947 H18Z 45.215 15.024 -18.914 ha 485 NIL_485    0.063
6948 H190 43.365 20.552 -16.138 hn 485 NIL_485    0.150
6949 C12J 37.651 18.460 13.117 c 486 NIL_486    0.510
6950 C12K 36.345 17.913 13.661 c3 486 NIL_486    0.092
6951 O08Y 38.552 18.866 13.826 o 486 NIL_486   -0.557
6952 H1CJ 35.553 18.633 13.459 h1 486 NIL_486    0.057
6953 H1CK 36.104 17.030 13.062 h1 486 NIL_486    0.057
6954 N08S 35.876 10.162 -3.167 n 487 NIL_487   -0.284
6955 C100 37.149 9.710 -3.844 c3 487 NIL_487    0.131
6956 C101 37.961 10.949 -4.329 c3 487 NIL_487    0.007
6957 C102 36.926 8.923 -5.173 c3 487 NIL_487    0.046
6958 C103 38.055 8.828 -2.964 c 487 NIL_487    0.510
6959 C104 37.509 11.134 -5.787 c3 487 NIL_487    0.105
6960 N08T 37.370 9.782 -6.280 n 487 NIL_487   -0.285
6961 O08D 39.108 8.384 -3.385 o 487 NIL_487   -0.544
6962 C105 38.315 12.078 -6.648 c 487 NIL_487    0.510
6963 O08E 38.712 13.128 -6.179 o 487 NIL_487   -0.549
6964 H191 36.518 11.574 -5.803 h1 487 NIL_487    0.061
6965 H192 37.504 7.994 -5.196 h1 487 NIL_487    0.050
6966 H193 35.877 8.656 -5.310 h1 487 NIL_487    0.050
6967 H194 39.036 10.750 -4.320 hc 487 NIL_487    0.032
6968 H195 37.788 11.834 -3.716 hc 487 NIL_487    0.032
6969 C0WI 41.519 11.154 -2.268 c3 488 NIL_488   -0.064
6970 C0WJ 40.381 10.979 -1.244 c3 488 NIL_488   -0.040
6971 C0WK 40.762 9.958 -0.149 c3 488 NIL_488    0.015
6972 H159 41.036 9.008 -0.603 h1 488 NIL_488    0.047
6973 H15A 41.691 10.316 0.300 h1 488 NIL_488    0.047
6974 H15B 40.137 11.941 -0.790 hc 488 NIL_488    0.028
6975 H15C 39.494 10.653 -1.777 hc 488 NIL_488    0.028
6976 H15D 42.424 11.533 -1.793 hc 488 NIL_488    0.023
6977 H15E 41.222 11.860 -3.046 hc 488 NIL_488    0.023
6978 H15F 41.757 10.199 -2.742 hc 488 NIL_488    0.023
6979 C0YK 36.845 22.510 6.444 c3 489 NIL_489   -0.064
6980 C0YL 38.107 22.146 5.641 c3 489 NIL_489   -0.040
6981 C0YM 39.049 21.176 6.393 c3 489 NIL_489    0.015
6982 H17H 39.946 21.047 5.793 h1 489 NIL_489    0.047
6983 H17I 39.400 21.695 7.289 h1 489 NIL_489    0.047
6984 H17J 37.830 21.741 4.668 hc 489 NIL_489    0.028
6985 H17K 38.661 23.065 5.438 hc 489 NIL_489    0.028
6986 H17L 36.232 21.626 6.629 hc 489 NIL_489    0.023
6987 H17M 36.246 23.235 5.890 hc 489 NIL_489    0.023
6988 H17N 37.114 22.959 7.404 hc 489 NIL_489    0.023
6989 N09E 37.747 18.429 11.770 n 490 NIL_490   -0.314
6990 C11Y 38.957 18.780 11.018 c3 490 NIL_490    0.013
6991 C11Z 39.059 18.013 9.681 c3 490 NIL_490   -0.010
6992 C120 37.913 18.308 8.678 c3 490 NIL_490    0.101
6993 C121 38.066 19.702 8.096 c 490 NIL_490    0.510
6994 N09F 37.873 17.242 7.687 n 490 NIL_490   -0.302
6995 O08W 37.823 20.667 8.798 o 490 NIL_490   -0.550
6996 H1BD 36.953 18.291 9.202 h1 490 NIL_490    0.061
6997 H1BE 40.018 18.243 9.209 hc 490 NIL_490    0.031
6998 H1BF 39.073 16.943 9.911 hc 490 NIL_490    0.031
6999 H1BG 39.831 18.524 11.622 h1 490 NIL_490    0.047
7000 H1BH 38.972 19.858 10.843 h1 490 NIL_490    0.047
7001 H1BI 37.613 16.330 8.031 hn 490 NIL_490    0.150
7002 H1BJ 36.960 18.091 11.237 hn 490 NIL_490    0.149
7003 C125 42.694 17.911 -9.030 c3 491 NIL_491    0.015
7004 C126 43.288 19.010 -9.945 c3 491 NIL_491   -0.040
7005 C127 44.091 20.061 -9.155 c3 491 NIL_491   -0.064
7006 H1BR 44.564 20.766 -9.843 hc 491 NIL_491    0.023
7007 H1BS 44.875 19.581 -8.565 hc 491 NIL_491    0.023
7008 H1BT 43.444 20.624 -8.479 hc 491 NIL_491    0.023
7009 H1BU 42.509 19.497 -10.532 hc 491 NIL_491    0.028
7010 H1BV 43.954 18.533 -10.666 hc 491 NIL_491    0.028
7011 H1BW 42.264 17.139 -9.663 h1 491 NIL_491    0.047
7012 H1BX 43.533 17.422 -8.532 h1 491 NIL_491    0.047
7013 C12B 34.988 11.164 17.666 c3 492 NIL_492    0.104
7014 N09G 35.532 11.773 18.881 n 492 NIL_492   -0.286
7015 C12C 34.471 9.782 18.088 c3 492 NIL_492   -0.005
7016 C12D 33.982 12.049 16.956 c 492 NIL_492    0.510
7017 C12E 35.727 10.729 19.898 c3 492 NIL_492    0.034
7018 C12F 35.445 9.378 19.208 c3 492 NIL_492    0.040
7019 O08X 33.077 11.611 16.275 o 492 NIL_492   -0.552
7020 N09H 36.698 8.820 18.681 n 492 NIL_492   -0.310
7021 H1C5 34.993 8.663 19.900 h1 492 NIL_492    0.052
7022 H1C6 35.005 10.889 20.704 h1 492 NIL_492    0.049
7023 H1C7 36.743 10.768 20.304 h1 492 NIL_492    0.049
7024 H1C8 34.454 9.076 17.255 hc 492 NIL_492    0.031
7025 H1C9 33.461 9.867 18.500 hc 492 NIL_492    0.031
7026 H1CA 35.823 11.034 16.971 h1 492 NIL_492    0.061
7027 H1CB 37.522 9.391 18.794 hn 492 NIL_492    0.150
7028 C11P 50.017 12.662 -5.079 c3 493 NIL_493   -0.040
7029 C11Q 49.093 11.949 -4.066 c3 493 NIL_493    0.015
7030 C11R 50.949 11.652 -5.774 c3 493 NIL_493   -0.064
7031 H1B1 51.552 11.109 -5.041 hc 493 NIL_493    0.023
7032 H1B2 51.627 12.169 -6.456 hc 493 NIL_493    0.023
7033 H1B3 50.369 10.928 -6.350 hc 493 NIL_493    0.023
7034 H1B4 48.505 11.191 -4.577 h1 493 NIL_493    0.047
7035 H1B5 49.737 11.372 -3.395 h1 493 NIL_493    0.047
7036 H1B6 50.619 13.412 -4.561 hc 493 NIL_493    0.028
7037 H1B7 49.435 13.171 -5.847 hc 493 NIL_493    0.028
7038 O084 41.329 6.429 18.159 o 494 NIL_494   -0.545
7039 C0YZ 41.247 7.496 17.579 c 494 NIL_494    0.510
7040 C0Z0 40.267 7.770 16.425 c3 494 NIL_494    0.128
7041 C0Z1 39.010 8.428 17.032 c3 494 NIL_494    0.003
7042 C0Z2 39.643 6.435 15.913 c3 494 NIL_494    0.029
7043 N08J 40.908 8.680 15.412 n 494 NIL_494   -0.275
7044 C0Z3 38.269 7.263 17.709 c3 494 NIL_494    0.090
7045 N08K 38.452 6.147 16.757 n3 494 NIL_494   -0.290
7046 C0Z4 36.840 7.610 18.096 c 494 NIL_494    0.510
7047 O085 35.900 6.863 17.902 o 494 NIL_494   -0.557
7048 H17Y 38.789 7.029 18.643 h1 494 NIL_494    0.057
7049 H17Z 39.270 6.536 14.893 h1 494 NIL_494    0.046
7050 H180 40.376 5.624 15.937 h1 494 NIL_494    0.046
7051 H181 38.384 8.857 16.246 hc 494 NIL_494    0.032
7052 H182 39.251 9.217 17.747 hc 494 NIL_494    0.032
7053 C12S 50.536 14.592 5.483 c3 495 NIL_495   -0.064
7054 C12T 50.177 13.174 5.962 c3 495 NIL_495   -0.040
7055 C12U 48.669 12.834 5.839 c3 495 NIL_495    0.015
7056 H1D2 48.469 12.738 4.775 h1 495 NIL_495    0.047
7057 H1D3 48.503 11.851 6.290 h1 495 NIL_495    0.047
7058 H1D4 50.740 12.454 5.362 hc 495 NIL_495    0.028
7059 H1D5 50.517 13.047 6.991 hc 495 NIL_495    0.028
7060 H1D6 50.028 15.346 6.089 hc 495 NIL_495    0.023
7061 H1D7 50.261 14.726 4.436 hc 495 NIL_495    0.023
7062 H1D8 51.612 14.756 5.567 hc 495 NIL_495    0.023
7063 C0V1 37.694 -5.402 -9.057 c3 496 NIL_496   -0.064
7064 C0V2 36.955 -4.330 -9.881 c3 496 NIL_496   -0.040
7065 C0V3 36.174 -3.332 -8.992 c3 496 NIL_496    0.015
7066 H12E 35.581 -2.691 -9.638 h1 496 NIL_496    0.047
7067 H12F 35.436 -3.910 -8.430 h1 496 NIL_496    0.047
7068 H12G 37.659 -3.808 -10.530 hc 496 NIL_496    0.028
7069 H12H 36.245 -4.826 -10.545 hc 496 NIL_496    0.028
7070 H12I 38.154 -6.135 -9.723 hc 496 NIL_496    0.023
7071 H12J 36.998 -5.929 -8.400 hc 496 NIL_496    0.023
7072 H12K 38.479 -4.956 -8.442 hc 496 NIL_496    0.023
7073 C0RE 30.883 -6.636 5.917 c 497 NIL_497    0.510
7074 C0RF 30.185 -5.370 5.412 c3 497 NIL_497    0.131
7075 O06A 31.485 -7.386 5.172 o 497 NIL_497   -0.547
7076 C0RG 31.249 -4.501 4.671 c3 497 NIL_497    0.007
7077 C0RH 29.238 -5.848 4.274 c3 497 NIL_497    0.046
7078 N06M 29.469 -4.592 6.479 n 497 NIL_497   -0.284
7079 C0RI 30.695 -4.302 3.247 c3 497 NIL_497    0.105
7080 N06N 29.849 -5.451 3.001 n 497 NIL_497   -0.285
7081 C0RJ 31.739 -4.049 2.183 c 497 NIL_497    0.510
7082 O06B 32.756 -3.445 2.464 o 497 NIL_497   -0.549
7083 H0YN 30.047 -3.424 3.221 h1 497 NIL_497    0.061
7084 H0YO 29.089 -6.932 4.299 h1 497 NIL_497    0.050
7085 H0YP 28.261 -5.369 4.344 h1 497 NIL_497    0.050
7086 H0YQ 32.211 -5.017 4.615 hc 497 NIL_497    0.032
7087 H0YR 31.432 -3.543 5.163 hc 497 NIL_497    0.032
7088 C0R1 31.467 -5.692 13.161 c 498 NIL_498    0.510
7089 C0R2 32.683 -6.053 13.995 c3 498 NIL_498    0.092
7090 O066 30.414 -5.296 13.623 o 498 NIL_498   -0.557
7091 H0Y9 32.821 -7.135 13.933 h1 498 NIL_498    0.057
7092 H0YA 33.546 -5.609 13.492 h1 498 NIL_498    0.057
7093 C0VK 32.188 7.561 -4.000 c3 499 NIL_499    0.015
7094 C0VL 31.223 8.090 -5.085 c3 499 NIL_499   -0.040
7095 C0VM 31.879 9.221 -5.895 c3 499 NIL_499   -0.064
7096 H13B 31.172 9.617 -6.628 hc 499 NIL_499    0.023
7097 H13C 32.757 8.849 -6.428 hc 499 NIL_499    0.023
7098 H13D 32.189 10.039 -5.240 hc 499 NIL_499    0.023
7099 H13E 30.310 8.463 -4.613 hc 499 NIL_499    0.028
7100 H13F 30.933 7.295 -5.772 hc 499 NIL_499    0.028
7101 H13G 33.133 7.266 -4.449 h1 499 NIL_499    0.047
7102 H13H 32.453 8.403 -3.352 h1 499 NIL_499    0.047
7103 C0V4 27.299 -3.308 6.077 c3 500 NIL_500   -0.040
7104 C0V5 28.843 -3.316 6.032 c3 500 NIL_500    0.015
7105 C0V6 26.760 -1.905 5.742 c3 500 NIL_500   -0.064
7106 H12L 27.084 -1.593 4.746 hc 500 NIL_500    0.023
7107 H12M 27.121 -1.172 6.468 hc 500 NIL_500    0.023
7108 H12N 25.668 -1.900 5.767 hc 500 NIL_500    0.023
7109 H12O 29.135 -3.068 5.014 h1 500 NIL_500    0.047
7110 H12P 29.221 -2.511 6.670 h1 500 NIL_500    0.047
7111 H12Q 26.948 -3.595 7.071 hc 500 NIL_500    0.028
7112 H12R 26.891 -4.027 5.364 hc 500 NIL_500    0.028
7113 C0S2 28.595 8.221 6.444 c3 501 NIL_501   -0.064
7114 C0S3 29.857 7.857 5.641 c3 501 NIL_501   -0.040
7115 C0S4 30.799 6.887 6.393 c3 501 NIL_501    0.015
7116 H0Z8 31.696 6.758 5.793 h1 501 NIL_501    0.047
7117 H0Z9 31.150 7.406 7.289 h1 501 NIL_501    0.047
7118 H0ZA 29.580 7.452 4.668 hc 501 NIL_501    0.028
7119 H0ZB 30.411 8.776 5.438 hc 501 NIL_501    0.028
7120 H0ZC 27.982 7.337 6.629 hc 501 NIL_501    0.023
7121 H0ZD 27.996 8.946 5.890 hc 501 NIL_501    0.023
7122 H0ZE 28.864 8.670 7.404 hc 501 NIL_501    0.023
7123 C0R3 38.537 -3.626 17.925 c3 502 NIL_502    0.104
7124 N06I 37.917 -3.592 19.250 n 502 NIL_502   -0.286
7125 C0R4 40.048 -3.492 18.175 c3 502 NIL_502   -0.005
7126 C0R5 38.097 -4.814 17.092 c 502 NIL_502    0.510
7127 C0R6 38.883 -3.066 20.223 c3 502 NIL_502    0.034
7128 C0R7 40.098 -2.579 19.413 c3 502 NIL_502    0.040
7129 O067 38.796 -5.322 16.239 o 502 NIL_502   -0.552
7130 N06J 39.913 -1.174 19.024 n 502 NIL_502   -0.310
7131 H0YB 41.030 -2.697 19.975 h1 502 NIL_502    0.052
7132 H0YC 39.186 -3.881 20.885 h1 502 NIL_502    0.049
7133 H0YD 38.442 -2.257 20.813 h1 502 NIL_502    0.049
7134 H0YE 40.580 -3.073 17.315 hc 502 NIL_502    0.031
7135 H0YF 40.480 -4.465 18.420 hc 502 NIL_502    0.031
7136 H0YG 38.190 -2.738 17.387 h1 502 NIL_502    0.061
7137 H0YH 38.959 -0.868 18.902 hn 502 NIL_502    0.150
7138 C0Q3 36.446 -3.136 -16.369 c 503 NIL_503    0.510
7139 C0Q4 37.594 -2.619 -15.513 c3 503 NIL_503    0.105
7140 O060 35.521 -2.432 -16.727 o 503 NIL_503   -0.553
7141 N06C 36.538 -4.451 -16.683 n 503 NIL_503   -0.310
7142 N06D 37.806 -1.155 -15.566 n 503 NIL_503   -0.283
7143 C0Q5 37.372 -3.002 -14.032 c3 503 NIL_503    0.007
7144 C0Q6 35.684 -5.174 -17.637 c3 503 NIL_503    0.036
7145 C0Q7 37.943 -0.666 -14.191 c3 503 NIL_503    0.046
7146 C0Q8 38.005 -1.851 -13.202 c3 503 NIL_503    0.131
7147 C0Q9 34.187 -4.990 -17.471 c2 503 NIL_503   -0.031
7148 N06E 39.434 -2.116 -12.782 n 503 NIL_503   -0.284
7149 C0QA 37.075 -1.432 -12.049 c 503 NIL_503    0.510
7150 C0QB 33.502 -5.656 -16.538 c2 503 NIL_503   -0.057
7151 C0QC 33.527 -4.136 -18.254 c2 503 NIL_503   -0.057
7152 C0QD 40.328 -2.832 -13.742 c3 503 NIL_503    0.015
7153 O061 35.861 -1.468 -12.136 o 503 NIL_503   -0.544
7154 C0QE 32.195 -5.443 -16.366 c2 503 NIL_503   -0.049
7155 C0QF 32.224 -3.919 -18.082 c2 503 NIL_503   -0.049
7156 C0QG 41.177 -1.904 -14.642 c3 503 NIL_503   -0.040
7157 C0QH 31.535 -4.549 -17.120 c2 503 NIL_503    0.037
7158 C0QI 41.968 -2.722 -15.683 c3 503 NIL_503   -0.064
7159 C0QJ 30.171 -4.164 -16.906 c 503 NIL_503    0.510
7160 O062 29.539 -3.829 -17.892 o 503 NIL_503   -0.535
7161 H0X7 42.624 -3.445 -15.192 hc 503 NIL_503    0.023
7162 H0X8 42.585 -2.063 -16.298 hc 503 NIL_503    0.023
7163 H0X9 41.289 -3.266 -16.344 hc 503 NIL_503    0.023
7164 H0XA 41.877 -1.332 -14.028 hc 503 NIL_503    0.028
7165 H0XB 40.547 -1.188 -15.171 hc 503 NIL_503    0.028
7166 H0XC 31.747 -3.174 -18.715 ha 503 NIL_503    0.063
7167 H0XD 31.690 -6.023 -15.605 ha 503 NIL_503    0.063
7168 H0XE 39.778 -3.523 -14.372 h1 503 NIL_503    0.047
7169 H0XF 41.015 -3.462 -13.167 h1 503 NIL_503    0.047
7170 H0XG 34.058 -3.577 -19.020 ha 503 NIL_503    0.063
7171 H0XH 34.015 -6.365 -15.890 ha 503 NIL_503    0.063
7172 H0XI 37.068 -0.046 -13.976 h1 503 NIL_503    0.050
7173 H0XJ 38.849 -0.061 -14.096 h1 503 NIL_503    0.050
7174 H0XK 35.926 -6.236 -17.554 h1 503 NIL_503    0.052
7175 H0XL 35.978 -4.856 -18.639 h1 503 NIL_503    0.052
7176 H0XM 36.297 -3.078 -13.856 hc 503 NIL_503    0.032
7177 H0XN 37.784 -3.983 -13.783 hc 503 NIL_503    0.032
7178 H0XO 38.503 -3.094 -15.887 h1 503 NIL_503    0.061
7179 H0XP 37.326 -4.964 -16.317 hn 503 NIL_503    0.150
7180 H128 36.538 -6.105 16.851 hn 504 NIL_504    0.151
7181 N07P 36.867 -5.304 17.369 n 504 NIL_504   -0.298
7182 C0UV 35.938 -4.720 18.361 c3 504 NIL_504    0.129
7183 C0UW 35.024 -3.685 17.666 c3 504 NIL_504    0.006
7184 C0UX 34.946 -5.809 18.827 c3 504 NIL_504    0.045
7185 C0UY 36.673 -4.047 19.524 c 504 NIL_504    0.510
7186 C0UZ 33.736 -4.442 17.283 c3 504 NIL_504    0.105
7187 N07Q 33.819 -5.767 17.894 n 504 NIL_504   -0.285
7188 O07A 36.193 -3.934 20.636 o 504 NIL_504   -0.545
7189 C0V0 33.418 -4.540 15.797 c 504 NIL_504    0.510
7190 O07B 33.853 -3.735 14.995 o 504 NIL_504   -0.549
7191 H129 32.889 -3.917 17.732 h1 504 NIL_504    0.061
7192 H12A 35.417 -6.797 18.827 h1 504 NIL_504    0.050
7193 H12B 34.558 -5.593 19.825 h1 504 NIL_504    0.050
7194 H12C 35.519 -3.213 16.815 hc 504 NIL_504    0.032
7195 H12D 34.756 -2.889 18.366 hc 504 NIL_504    0.032
7196 C0W3 30.152 -9.491 17.373 c3 505 NIL_505   -0.004
7197 C0W4 30.062 -10.608 16.315 c3 505 NIL_505   -0.052
7198 H14C 30.000 -11.582 16.805 hc 505 NIL_505    0.024
7199 H14D 30.939 -10.612 15.664 hc 505 NIL_505    0.024
7200 H14E 29.170 -10.478 15.699 hc 505 NIL_505    0.024
7201 H14F 29.271 -9.560 18.016 h1 505 NIL_505    0.043
7202 H14G 31.040 -9.647 17.993 h1 505 NIL_505    0.043
7203 O06M 33.079 -7.860 18.159 o 506 NIL_506   -0.545
7204 C0SH 32.997 -6.793 17.579 c 506 NIL_506    0.510
7205 C0SI 32.017 -6.519 16.425 c3 506 NIL_506    0.128
7206 C0SJ 30.760 -5.861 17.032 c3 506 NIL_506    0.003
7207 C0SK 31.393 -7.854 15.913 c3 506 NIL_506    0.029
7208 N06Y 32.658 -5.609 15.412 n 506 NIL_506   -0.275
7209 C0SL 30.019 -7.026 17.709 c3 506 NIL_506    0.090
7210 N06Z 30.202 -8.142 16.757 n3 506 NIL_506   -0.290
7211 C0SM 28.590 -6.679 18.096 c 506 NIL_506    0.510
7212 O06N 27.650 -7.426 17.902 o 506 NIL_506   -0.557
7213 H0ZP 30.539 -7.260 18.643 h1 506 NIL_506    0.057
7214 H0ZQ 31.020 -7.753 14.893 h1 506 NIL_506    0.046
7215 H0ZR 32.126 -8.665 15.937 h1 506 NIL_506    0.046
7216 H0ZS 30.134 -5.432 16.246 hc 506 NIL_506    0.032
7217 H0ZT 31.001 -5.072 17.747 hc 506 NIL_506    0.032
7218 C0TY 32.601 6.332 19.561 c3 507 NIL_507    0.034
7219 C0TZ 31.473 7.259 19.068 c3 507 NIL_507    0.040
7220 N07D 33.558 6.195 18.457 n 507 NIL_507   -0.286
7221 C0U0 32.173 8.083 17.976 c3 507 NIL_507   -0.005
7222 N07E 30.366 6.476 18.504 n 507 NIL_507   -0.310
7223 C0U1 33.152 7.073 17.358 c3 507 NIL_507    0.104
7224 C0U2 34.323 7.677 16.606 c 507 NIL_507    0.510
7225 O070 34.250 8.730 16.005 o 507 NIL_507   -0.552
7226 H119 32.614 6.454 16.634 h1 507 NIL_507    0.061
7227 H11A 31.476 8.489 17.238 hc 507 NIL_507    0.031
7228 H11B 32.724 8.908 18.436 hc 507 NIL_507    0.031
7229 H11C 31.107 7.896 19.879 h1 507 NIL_507    0.052
7230 H11D 33.115 6.797 20.407 h1 507 NIL_507    0.049
7231 H11E 32.214 5.354 19.861 h1 507 NIL_507    0.049
7232 H11F 30.601 5.570 18.127 hn 507 NIL_507    0.150
7233 C0UL 39.134 -1.035 0.176 c3 508 NIL_508    0.007
7234 C0UM 39.533 -0.276 -1.098 c3 508 NIL_508    0.105
7235 C0UN 37.920 -0.246 0.747 c3 508 NIL_508    0.131
7236 N07L 38.255 0.127 -1.637 n 508 NIL_508   -0.285
7237 C0UO 40.432 -1.083 -2.002 c 508 NIL_508    0.510
7238 C0UP 37.504 0.634 -0.484 c3 508 NIL_508    0.046
7239 C0UQ 38.468 0.640 1.876 c 508 NIL_508    0.510
7240 N07M 36.879 -1.213 1.253 n 508 NIL_508   -0.284
7241 O077 41.538 -1.392 -1.599 o 508 NIL_508   -0.549
7242 O078 38.948 1.742 1.690 o 508 NIL_508   -0.544
7243 H11W 36.440 0.621 -0.686 h1 508 NIL_508    0.050
7244 H11X 37.780 1.682 -0.349 h1 508 NIL_508    0.050
7245 H11Y 40.089 0.627 -0.830 h1 508 NIL_508    0.061
7246 H11Z 38.836 -2.053 -0.091 hc 508 NIL_508    0.032
7247 H120 39.969 -1.098 0.880 hc 508 NIL_508    0.032
7248 C0W1 29.401 4.171 13.117 c 509 NIL_509    0.510
7249 C0W2 28.095 3.624 13.661 c3 509 NIL_509    0.092
7250 O07G 30.302 4.577 13.826 o 509 NIL_509   -0.557
7251 H14A 27.303 4.344 13.459 h1 509 NIL_509    0.057
7252 H14B 27.854 2.741 13.062 h1 509 NIL_509    0.057
7253 N07T 29.497 4.140 11.770 n 510 NIL_510   -0.314
7254 C0VG 30.707 4.491 11.018 c3 510 NIL_510    0.013
7255 C0VH 30.809 3.724 9.681 c3 510 NIL_510   -0.010
7256 C0VI 29.663 4.019 8.678 c3 510 NIL_510    0.101
7257 C0VJ 29.816 5.413 8.096 c 510 NIL_510    0.510
7258 N07U 29.623 2.953 7.687 n 510 NIL_510   -0.302
7259 O07E 29.573 6.378 8.798 o 510 NIL_510   -0.550
7260 H134 28.703 4.002 9.202 h1 510 NIL_510    0.061
7261 H135 31.768 3.954 9.209 hc 510 NIL_510    0.031
7262 H136 30.823 2.654 9.911 hc 510 NIL_510    0.031
7263 H137 31.581 4.235 11.622 h1 510 NIL_510    0.047
7264 H138 30.722 5.569 10.843 h1 510 NIL_510    0.047
7265 H139 29.363 2.041 8.031 hn 510 NIL_510    0.150
7266 H13A 28.710 3.802 11.237 hn 510 NIL_510    0.149
7267 C0VN 34.444 3.622 -9.030 c3 511 NIL_511    0.015
7268 C0VO 35.038 4.721 -9.945 c3 511 NIL_511   -0.040
7269 C0VP 35.841 5.772 -9.155 c3 511 NIL_511   -0.064
7270 H13I 36.314 6.477 -9.843 hc 511 NIL_511    0.023
7271 H13J 36.625 5.292 -8.565 hc 511 NIL_511    0.023
7272 H13K 35.194 6.335 -8.479 hc 511 NIL_511    0.023
7273 H13L 34.259 5.208 -10.532 hc 511 NIL_511    0.028
7274 H13M 35.704 4.244 -10.666 hc 511 NIL_511    0.028
7275 H13N 34.014 2.850 -9.663 h1 511 NIL_511    0.047
7276 H13O 35.283 3.133 -8.532 h1 511 NIL_511    0.047
7277 C0VT 26.738 -3.125 17.666 c3 512 NIL_512    0.104
7278 N07V 27.282 -2.516 18.881 n 512 NIL_512   -0.286
7279 C0VU 26.221 -4.507 18.088 c3 512 NIL_512   -0.005
7280 C0VV 25.732 -2.240 16.956 c 512 NIL_512    0.510
7281 C0VW 27.477 -3.560 19.898 c3 512 NIL_512    0.034
7282 C0VX 27.195 -4.911 19.208 c3 512 NIL_512    0.040
7283 O07F 24.827 -2.678 16.275 o 512 NIL_512   -0.552
7284 N07W 28.448 -5.469 18.681 n 512 NIL_512   -0.310
7285 H13W 26.743 -5.626 19.900 h1 512 NIL_512    0.052
7286 H13X 26.755 -3.400 20.704 h1 512 NIL_512    0.049
7287 H13Y 28.493 -3.521 20.304 h1 512 NIL_512    0.049
7288 H13Z 26.204 -5.213 17.255 hc 512 NIL_512    0.031
7289 H140 25.211 -4.422 18.500 hc 512 NIL_512    0.031
7290 H141 27.573 -3.255 16.971 h1 512 NIL_512    0.061
7291 H142 29.272 -4.898 18.794 hn 512 NIL_512    0.150
7292 O06Q 28.738 7.968 18.870 o 513 NIL_513   -0.557
7293 C0SV 29.088 6.907 18.391 c 513 NIL_513    0.510
7294 C0SW 28.114 5.949 17.699 c3 513 NIL_513    0.090
7295 N072 27.075 6.459 16.754 n3 513 NIL_513   -0.290
7296 C0SX 28.777 4.788 16.931 c3 513 NIL_513    0.003
7297 C0SY 26.900 5.431 15.686 c3 513 NIL_513    0.029
7298 C0SZ 27.621 4.133 16.148 c3 513 NIL_513    0.128
7299 N073 28.164 3.214 15.088 n 513 NIL_513   -0.275
7300 C0T0 26.767 3.342 17.153 c 513 NIL_513    0.510
7301 O06R 25.774 3.793 17.692 o 513 NIL_513   -0.545
7302 H104 27.391 5.821 14.792 h1 513 NIL_513    0.046
7303 H105 25.844 5.257 15.465 h1 513 NIL_513    0.046
7304 H106 29.522 5.185 16.237 hc 513 NIL_513    0.032
7305 H107 29.274 4.088 17.607 hc 513 NIL_513    0.032
7306 H108 27.574 5.495 18.534 h1 513 NIL_513    0.057
7307 C0W5 26.076 8.310 15.353 c3 514 NIL_514   -0.052
7308 C0W6 27.270 7.831 16.205 c3 514 NIL_514   -0.004
7309 H14H 28.179 7.854 15.597 h1 514 NIL_514    0.043
7310 H14I 27.382 8.550 17.017 h1 514 NIL_514    0.043
7311 H14J 25.170 8.363 15.961 hc 514 NIL_514    0.024
7312 H14K 25.890 7.646 14.506 hc 514 NIL_514    0.024
7313 H14L 26.280 9.308 14.959 hc 514 NIL_514    0.024
7314 C0VA 30.579 3.652 -0.170 c3 515 NIL_515    0.046
7315 C0VB 30.998 4.584 1.013 c3 515 NIL_515    0.131
7316 N07R 30.827 4.417 -1.396 n 515 NIL_515   -0.285
7317 C0VC 30.939 5.996 0.361 c3 515 NIL_515    0.007
7318 C0VD 29.909 4.568 2.102 c 515 NIL_515    0.510
7319 N07S 32.386 4.301 1.543 n 515 NIL_515   -0.284
7320 C0VE 30.447 5.778 -1.082 c3 515 NIL_515    0.105
7321 O07C 28.725 4.462 1.844 o 515 NIL_515   -0.544
7322 C0VF 30.935 6.848 -2.026 c 515 NIL_515    0.510
7323 O07D 30.719 8.015 -1.754 o 515 NIL_515   -0.549
7324 H12Z 29.354 5.824 -1.105 h1 515 NIL_515    0.061
7325 H130 31.925 6.465 0.359 hc 515 NIL_515    0.032
7326 H131 30.265 6.677 0.887 hc 515 NIL_515    0.032
7327 H132 31.088 2.688 -0.158 h1 515 NIL_515    0.050
7328 H133 29.508 3.441 -0.149 h1 515 NIL_515    0.050
7329 C0RK 29.115 -4.247 0.086 c3 516 NIL_516    0.007
7330 C0RL 28.360 -5.040 -0.989 c3 516 NIL_516    0.105
7331 C0RM 30.206 -5.248 0.574 c3 516 NIL_516    0.131
7332 N06O 29.418 -5.732 -1.694 n 516 NIL_516   -0.285
7333 C0RN 27.405 -4.224 -1.826 c 516 NIL_516    0.510
7334 C0RO 30.293 -6.255 -0.632 c3 516 NIL_516    0.046
7335 C0RP 29.549 -5.943 1.781 c 516 NIL_516    0.510
7336 N06P 31.493 -4.532 0.929 n 516 NIL_516   -0.284
7337 O06C 26.431 -3.724 -1.295 o 516 NIL_516   -0.549
7338 O06D 28.761 -6.865 1.676 o 516 NIL_516   -0.544
7339 H0YS 31.300 -6.418 -1.002 h1 516 NIL_516    0.050
7340 H0YT 29.921 -7.243 -0.352 h1 516 NIL_516    0.050
7341 H0YU 27.739 -5.796 -0.502 h1 516 NIL_516    0.061
7342 H0YV 29.553 -3.348 -0.352 hc 516 NIL_516    0.032
7343 H0YW 28.447 -3.925 0.889 hc 516 NIL_516    0.032
7344 C0R8 31.779 5.040 -3.604 c3 517 NIL_517    0.131
7345 C0R9 33.165 4.755 -4.268 c3 517 NIL_517    0.007
7346 C0RA 30.794 4.693 -4.758 c3 517 NIL_517    0.046
7347 N06K 31.608 6.477 -3.152 n 517 NIL_517   -0.284
7348 C0RB 31.491 4.004 -2.500 c 517 NIL_517    0.510
7349 C0RC 32.930 4.982 -5.775 c3 517 NIL_517    0.105
7350 N06L 31.550 4.602 -6.015 n 517 NIL_517   -0.285
7351 O068 31.809 2.833 -2.606 o 517 NIL_517   -0.544
7352 C0RD 33.919 4.342 -6.721 c 517 NIL_517    0.510
7353 O069 35.056 4.093 -6.362 o 517 NIL_517   -0.549
7354 H0YI 33.003 6.043 -6.013 h1 517 NIL_517    0.061
7355 H0YJ 30.316 3.723 -4.591 h1 517 NIL_517    0.050
7356 H0YK 30.009 5.449 -4.843 h1 517 NIL_517    0.050
7357 H0YL 33.468 3.714 -4.136 hc 517 NIL_517    0.032
7358 H0YM 33.970 5.375 -3.869 hc 517 NIL_517    0.032
7359 C0S5 31.798 4.316 5.203 c3 518 NIL_518    0.007
7360 C0S6 31.674 4.962 3.810 c3 518 NIL_518    0.105
7361 C0S7 30.375 4.422 5.825 c3 518 NIL_518    0.131
7362 N06U 30.311 4.696 3.387 n 518 NIL_518   -0.285
7363 C0S8 32.749 4.534 2.837 c 518 NIL_518    0.510
7364 C0S9 29.454 4.605 4.581 c3 518 NIL_518    0.046
7365 N06V 30.244 5.560 6.808 n 518 NIL_518   -0.284
7366 C0SA 30.010 3.047 6.404 c 518 NIL_518    0.510
7367 O06I 33.896 4.404 3.223 o 518 NIL_518   -0.549
7368 O06J 30.033 2.029 5.737 o 518 NIL_518   -0.547
7369 H0ZF 28.774 3.756 4.458 h1 518 NIL_518    0.050
7370 H0ZG 28.836 5.498 4.673 h1 518 NIL_518    0.050
7371 H0ZH 31.774 6.046 3.885 h1 518 NIL_518    0.061
7372 H0ZI 32.092 3.272 5.068 hc 518 NIL_518    0.032
7373 H0ZJ 32.571 4.785 5.816 hc 518 NIL_518    0.032
7374 C0ST 42.499 1.082 16.418 c3 519 NIL_519   -0.004
7375 C0SU 42.374 -0.235 15.619 c3 519 NIL_519   -0.052
7376 H0ZZ 43.368 -0.599 15.355 hc 519 NIL_519    0.024
7377 H100 41.818 -0.088 14.691 hc 519 NIL_519    0.024
7378 H101 41.877 -1.014 16.197 hc 519 NIL_519    0.024
7379 H102 43.172 0.937 17.264 h1 519 NIL_519    0.043
7380 H103 42.961 1.831 15.770 h1 519 NIL_519    0.043
7381 C0VY 25.485 -1.418 -4.974 c3 520 NIL_520   -0.064
7382 C0VZ 26.467 -1.984 -3.931 c3 520 NIL_520   -0.040
7383 C0W0 26.560 -3.527 -4.024 c3 520 NIL_520    0.015
7384 H143 25.598 -3.951 -3.720 h1 520 NIL_520    0.047
7385 H144 26.688 -3.799 -5.071 h1 520 NIL_520    0.047
7386 H145 27.445 -1.529 -4.089 hc 520 NIL_520    0.028
7387 H146 26.138 -1.689 -2.932 hc 520 NIL_520    0.028
7388 H147 24.485 -1.837 -4.840 hc 520 NIL_520    0.023
7389 H148 25.822 -1.645 -5.989 hc 520 NIL_520    0.023
7390 H149 25.416 -0.334 -4.872 hc 520 NIL_520    0.023
7391 C0VQ 34.194 4.868 -0.186 c3 521 NIL_521   -0.040
7392 C0VR 33.419 3.788 0.593 c3 521 NIL_521    0.015
7393 C0VS 35.338 4.228 -0.995 c3 521 NIL_521   -0.064
7394 H13P 35.869 4.988 -1.573 hc 521 NIL_521    0.023
7395 H13Q 34.946 3.479 -1.688 hc 521 NIL_521    0.023
7396 H13R 36.055 3.742 -0.329 hc 521 NIL_521    0.023
7397 H13S 33.009 3.077 -0.118 h1 521 NIL_521    0.047
7398 H13T 34.153 3.220 1.171 h1 521 NIL_521    0.047
7399 H13U 34.607 5.603 0.509 hc 521 NIL_521    0.028
7400 H13V 33.529 5.391 -0.873 hc 521 NIL_521    0.028
7401 C0V7 41.767 -1.627 -5.079 c3 522 NIL_522   -0.040
7402 C0V8 40.843 -2.340 -4.066 c3 522 NIL_522    0.015
7403 C0V9 42.699 -2.637 -5.774 c3 522 NIL_522   -0.064
7404 H12S 43.302 -3.180 -5.041 hc 522 NIL_522    0.023
7405 H12T 43.377 -2.120 -6.456 hc 522 NIL_522    0.023
7406 H12U 42.119 -3.361 -6.350 hc 522 NIL_522    0.023
7407 H12V 40.255 -3.098 -4.577 h1 522 NIL_522    0.047
7408 H12W 41.487 -2.917 -3.395 h1 522 NIL_522    0.047
7409 H12X 42.369 -0.877 -4.561 hc 522 NIL_522    0.028
7410 H12Y 41.185 -1.118 -5.847 hc 522 NIL_522    0.028
7411 C0SN 38.712 -0.106 -5.009 c3 523 NIL_523    0.046
7412 C0SO 38.622 -1.063 -3.786 c3 523 NIL_523    0.131
7413 N070 38.273 -0.838 -6.201 n 523 NIL_523   -0.285
7414 C0SP 37.859 -2.298 -4.358 c3 523 NIL_523    0.007
7415 N071 39.984 -1.436 -3.240 n 523 NIL_523   -0.284
7416 C0SQ 37.714 -0.316 -2.793 c 523 NIL_523    0.510
7417 C0SR 38.121 -2.243 -5.873 c3 523 NIL_523    0.105
7418 O06O 36.545 -0.082 -3.044 o 523 NIL_523   -0.544
7419 C0SS 37.134 -2.984 -6.745 c 523 NIL_523    0.510
7420 O06P 36.519 -3.941 -6.312 o 523 NIL_523   -0.549
7421 H0ZU 39.076 -2.714 -6.107 h1 523 NIL_523    0.061
7422 H0ZV 36.783 -2.223 -4.188 hc 523 NIL_523    0.032
7423 H0ZW 38.186 -3.243 -3.916 hc 523 NIL_523    0.032
7424 H0ZX 38.051 0.758 -4.891 h1 523 NIL_523    0.050
7425 H0ZY 39.727 0.272 -5.143 h1 523 NIL_523    0.050
7426 C0WA 42.286 0.303 5.483 c3 524 NIL_524   -0.064
7427 C0WB 41.927 -1.115 5.962 c3 524 NIL_524   -0.040
7428 C0WC 40.419 -1.455 5.839 c3 524 NIL_524    0.015
7429 H14T 40.219 -1.551 4.775 h1 524 NIL_524    0.047
7430 H14U 40.253 -2.438 6.290 h1 524 NIL_524    0.047
7431 H14V 42.490 -1.835 5.362 hc 524 NIL_524    0.028
7432 H14W 42.267 -1.242 6.991 hc 524 NIL_524    0.028
7433 H14X 41.778 1.057 6.089 hc 524 NIL_524    0.023
7434 H14Y 42.011 0.437 4.436 hc 524 NIL_524    0.023
7435 H14Z 43.362 0.467 5.567 hc 524 NIL_524    0.023
7436 C0WD 33.089 -1.197 -7.753 c3 525 NIL_525   -0.064
7437 C0WE 32.315 -1.391 -9.072 c3 525 NIL_525   -0.040
7438 C0WF 30.773 -1.529 -8.917 c3 525 NIL_525    0.015
7439 H150 30.373 -0.555 -8.622 h1 525 NIL_525    0.047
7440 H151 30.364 -1.730 -9.909 h1 525 NIL_525    0.047
7441 H152 32.510 -0.527 -9.711 hc 525 NIL_525    0.028
7442 H153 32.731 -2.246 -9.602 hc 525 NIL_525    0.028
7443 H154 34.158 -1.119 -7.965 hc 525 NIL_525    0.023
7444 H155 32.943 -2.046 -7.081 hc 525 NIL_525    0.023
7445 H156 32.773 -0.284 -7.245 hc 525 NIL_525    0.023
7446 C0TO 31.885 5.785 -8.981 c3 526 NIL_526    0.007
7447 C0TP 31.107 5.604 -10.293 c3 526 NIL_526    0.105
7448 C0TQ 32.042 4.347 -8.404 c3 526 NIL_526    0.131
7449 N079 31.524 4.304 -10.770 n 526 NIL_526   -0.285
7450 C0TR 31.288 6.763 -11.235 c 526 NIL_526    0.510
7451 C0TS 31.537 3.446 -9.580 c3 526 NIL_526    0.046
7452 N07A 33.474 4.087 -7.988 n 526 NIL_526   -0.284
7453 C0TT 31.050 4.297 -7.231 c 526 NIL_526    0.510
7454 O06X 31.022 7.883 -10.839 o 526 NIL_526   -0.549
7455 O06Y 29.865 4.051 -7.361 o 526 NIL_526   -0.544
7456 H10X 32.118 2.537 -9.721 h1 526 NIL_526    0.050
7457 H10Y 30.505 3.124 -9.426 h1 526 NIL_526    0.050
7458 H10Z 30.036 5.547 -10.077 h1 526 NIL_526    0.061
7459 H110 32.857 6.238 -9.182 hc 526 NIL_526    0.032
7460 H111 31.353 6.463 -8.308 hc 526 NIL_526    0.032
7461 C0W7 34.345 0.501 0.858 c3 527 NIL_527   -0.064
7462 C0W8 34.416 -1.033 0.778 c3 527 NIL_527   -0.040
7463 C0W9 35.784 -1.612 0.337 c3 527 NIL_527    0.015
7464 H14M 35.711 -2.704 0.349 h1 527 NIL_527    0.047
7465 H14N 35.993 -1.345 -0.698 h1 527 NIL_527    0.047
7466 H14O 34.161 -1.432 1.760 hc 527 NIL_527    0.028
7467 H14P 33.647 -1.372 0.090 hc 527 NIL_527    0.028
7468 H14Q 34.411 0.943 -0.137 hc 527 NIL_527    0.023
7469 H14R 35.144 0.900 1.486 hc 527 NIL_527    0.023
7470 H14S 33.390 0.803 1.295 hc 527 NIL_527    0.023
7471 C0RQ 35.629 5.653 17.276 c3 528 NIL_528    0.129
7472 C0RR 35.341 4.545 16.246 c3 528 NIL_528    0.006
7473 C0RS 37.108 5.380 17.652 c3 528 NIL_528    0.045
7474 N06Q 35.481 6.983 16.653 n 528 NIL_528   -0.298
7475 C0RT 34.688 5.450 18.468 c 528 NIL_528    0.510
7476 C0RU 36.232 3.382 16.696 c3 528 NIL_528    0.105
7477 N06R 37.432 4.007 17.234 n 528 NIL_528   -0.285
7478 H0YX 36.292 7.363 16.188 hn 528 NIL_528    0.151
7479 O06E 34.933 4.689 19.386 o 528 NIL_528   -0.545
7480 C0RV 36.480 2.359 15.613 c 528 NIL_528    0.510
7481 O06F 35.586 2.040 14.852 o 528 NIL_528   -0.549
7482 H0YY 35.747 2.848 17.518 h1 528 NIL_528    0.061
7483 H0YZ 37.766 6.065 17.109 h1 528 NIL_528    0.050
7484 H0Z0 37.279 5.499 18.725 h1 528 NIL_528    0.050
7485 H0Z1 35.648 4.872 15.248 hc 528 NIL_528    0.032
7486 H0Z2 34.285 4.266 16.207 hc 528 NIL_528    0.032
7487 C0RW 38.106 -0.319 -7.434 c 529 NIL_529    0.510
7488 C0RX 37.722 -1.313 -8.542 c3 529 NIL_529    0.131
7489 O06G 38.306 0.865 -7.635 o 529 NIL_529   -0.544
7490 C0RY 39.077 -1.697 -9.206 c3 529 NIL_529    0.007
7491 C0RZ 36.967 -0.570 -9.689 c3 529 NIL_529    0.046
7492 N06S 36.997 -2.538 -8.027 n 529 NIL_529   -0.284
7493 C0S0 39.058 -1.029 -10.589 c3 529 NIL_529    0.105
7494 N06T 37.651 -0.954 -10.925 n 529 NIL_529   -0.285
7495 C0S1 39.956 -1.724 -11.585 c 529 NIL_529    0.510
7496 O06H 41.123 -1.915 -11.299 o 529 NIL_529   -0.549
7497 H0Z3 39.426 -0.002 -10.501 h1 529 NIL_529    0.061
7498 H0Z4 35.897 -0.776 -9.711 h1 529 NIL_529    0.050
7499 H0Z5 37.067 0.515 -9.605 h1 529 NIL_529    0.050
7500 H0Z6 39.176 -2.777 -9.303 hc 529 NIL_529    0.032
7501 H0Z7 39.944 -1.357 -8.634 hc 529 NIL_529    0.032
7502 O06K 39.580 4.021 17.808 o 530 NIL_530   -0.545
7503 C0SB 38.663 3.451 17.246 c 530 NIL_530    0.510
7504 C0SC 38.849 2.126 16.485 c3 530 NIL_530    0.128
7505 C0SD 38.973 0.984 17.516 c3 530 NIL_530    0.003
7506 C0SE 40.274 2.127 15.857 c3 530 NIL_530    0.029
7507 N06W 37.733 1.835 15.517 n 530 NIL_530   -0.275
7508 C0SF 40.436 0.995 18.023 c3 530 NIL_530    0.090
7509 N06X 41.198 1.620 16.899 n3 530 NIL_530   -0.290
7510 C0SG 40.896 -0.332 18.640 c 530 NIL_530    0.510
7511 O06L 42.065 -0.619 18.816 o 530 NIL_530   -0.557
7512 H0ZK 40.469 1.703 18.857 h1 530 NIL_530    0.057
7513 H0ZL 40.338 1.467 14.998 h1 530 NIL_530    0.046
7514 H0ZM 40.569 3.128 15.528 h1 530 NIL_530    0.046
7515 H0ZN 38.776 0.032 17.020 hc 530 NIL_530    0.032
7516 H0ZO 38.253 1.089 18.332 hc 530 NIL_530    0.032
7517 N07J 25.885 -0.911 17.143 n 531 NIL_531   -0.298
7518 C0UF 27.008 -0.298 17.883 c3 531 NIL_531    0.129
7519 H11Q 25.224 -0.282 16.712 hn 531 NIL_531    0.151
7520 C0UG 28.184 -0.053 16.903 c3 531 NIL_531    0.006
7521 C0UH 26.587 1.123 18.340 c3 531 NIL_531    0.045
7522 C0UI 27.492 -1.187 19.037 c 531 NIL_531    0.510
7523 C0UJ 28.366 1.471 16.804 c3 531 NIL_531    0.105
7524 N07K 27.176 2.074 17.394 n 531 NIL_531   -0.285
7525 O075 28.021 -0.747 20.040 o 531 NIL_531   -0.545
7526 C0UK 28.654 1.981 15.402 c 531 NIL_531    0.510
7527 O076 29.262 1.303 14.594 o 531 NIL_531   -0.549
7528 H11R 29.220 1.763 17.422 h1 531 NIL_531    0.061
7529 H11S 25.498 1.226 18.363 h1 531 NIL_531    0.050
7530 H11T 26.985 1.355 19.331 h1 531 NIL_531    0.050
7531 H11U 27.953 -0.479 15.922 hc 531 NIL_531    0.032
7532 H11V 29.112 -0.517 17.248 hc 531 NIL_531    0.032
7533 N077 27.626 -4.127 -3.167 n 532 NIL_532   -0.284
7534 C0TI 28.899 -4.579 -3.844 c3 532 NIL_532    0.131
7535 C0TJ 29.711 -3.340 -4.329 c3 532 NIL_532    0.007
7536 C0TK 28.676 -5.366 -5.173 c3 532 NIL_532    0.046
7537 C0TL 29.805 -5.461 -2.964 c 532 NIL_532    0.510
7538 C0TM 29.259 -3.155 -5.787 c3 532 NIL_532    0.105
7539 N078 29.120 -4.507 -6.280 n 532 NIL_532   -0.285
7540 O06V 30.858 -5.905 -3.385 o 532 NIL_532   -0.544
7541 C0TN 30.065 -2.211 -6.648 c 532 NIL_532    0.510
7542 O06W 30.462 -1.161 -6.179 o 532 NIL_532   -0.549
7543 H10S 28.268 -2.715 -5.803 h1 532 NIL_532    0.061
7544 H10T 29.254 -6.295 -5.196 h1 532 NIL_532    0.050
7545 H10U 27.627 -5.633 -5.310 h1 532 NIL_532    0.050
7546 H10V 30.786 -3.539 -4.320 hc 532 NIL_532    0.032
7547 H10W 29.538 -2.455 -3.716 hc 532 NIL_532    0.032
7548 C0TU 38.148 0.508 9.836 c3 533 NIL_533   -0.010
7549 C0TV 38.589 0.816 8.383 c3 533 NIL_533    0.101
7550 C0TW 39.243 0.863 10.865 c3 533 NIL_533    0.013
7551 C0TX 39.513 -0.245 7.797 c 533 NIL_533    0.510
7552 N07B 37.426 1.126 7.557 n 533 NIL_533   -0.302
7553 N07C 38.828 0.538 12.232 n 533 NIL_533   -0.314
7554 O06Z 40.286 -0.854 8.513 o 533 NIL_533   -0.550
7555 H112 40.160 0.308 10.658 h1 533 NIL_533    0.047
7556 H113 39.470 1.929 10.793 h1 533 NIL_533    0.047
7557 H114 39.181 1.734 8.399 h1 533 NIL_533    0.061
7558 H115 37.871 -0.545 9.924 hc 533 NIL_533    0.031
7559 H116 37.256 1.094 10.080 hc 533 NIL_533    0.031
7560 H117 38.834 -0.436 12.492 hn 533 NIL_533    0.149
7561 H118 36.709 1.685 7.993 hn 533 NIL_533    0.150
7562 C0Q0 33.269 -3.135 -2.268 c3 534 NIL_534   -0.064
7563 C0Q1 32.131 -3.310 -1.244 c3 534 NIL_534   -0.040
7564 C0Q2 32.512 -4.331 -0.149 c3 534 NIL_534    0.015
7565 H0X0 32.786 -5.281 -0.603 h1 534 NIL_534    0.047
7566 H0X1 33.441 -3.973 0.300 h1 534 NIL_534    0.047
7567 H0X2 31.887 -2.348 -0.790 hc 534 NIL_534    0.028
7568 H0X3 31.244 -3.636 -1.777 hc 534 NIL_534    0.028
7569 H0X4 34.174 -2.756 -1.793 hc 534 NIL_534    0.023
7570 H0X5 32.972 -2.429 -3.046 hc 534 NIL_534    0.023
7571 H0X6 33.507 -4.090 -2.742 hc 534 NIL_534    0.023
7572 O06S 38.032 -1.037 -17.753 o 535 NIL_535   -0.535
7573 C0T1 37.811 -0.423 -16.724 c 535 NIL_535    0.510
7574 C0T2 37.506 0.978 -16.876 c2 535 NIL_535    0.037
7575 C0T3 37.057 1.411 -18.067 c2 535 NIL_535   -0.049
7576 C0T4 37.569 1.888 -15.885 c2 535 NIL_535   -0.049
7577 C0T5 36.657 2.669 -18.249 c2 535 NIL_535   -0.057
7578 C0T6 37.171 3.148 -16.070 c2 535 NIL_535   -0.057
7579 C0T7 36.695 3.550 -17.247 c2 535 NIL_535   -0.031
7580 C0T8 36.158 4.956 -17.442 c3 535 NIL_535    0.036
7581 N074 35.069 5.335 -16.531 n 535 NIL_535   -0.310
7582 C0T9 33.980 4.584 -16.244 c 535 NIL_535    0.510
7583 C0TA 32.973 5.274 -15.334 c3 535 NIL_535    0.105
7584 O06T 33.832 3.449 -16.659 o 535 NIL_535   -0.553
7585 N075 31.587 4.773 -15.431 n 535 NIL_535   -0.283
7586 C0TB 33.403 5.127 -13.858 c3 535 NIL_535    0.007
7587 C0TC 31.041 4.662 -14.072 c3 535 NIL_535    0.046
7588 C0TD 32.083 5.150 -13.033 c3 535 NIL_535    0.131
7589 N076 31.743 6.525 -12.499 n 535 NIL_535   -0.284
7590 C0TE 32.106 4.044 -11.959 c 535 NIL_535    0.510
7591 C0TF 31.959 7.698 -13.404 c3 535 NIL_535    0.015
7592 O06U 32.588 2.944 -12.167 o 535 NIL_535   -0.544
7593 C0TG 30.800 8.055 -14.364 c3 535 NIL_535   -0.040
7594 C0TH 29.450 8.269 -13.651 c3 535 NIL_535   -0.064
7595 H109 28.702 8.616 -14.362 hc 535 NIL_535    0.023
7596 H10A 29.545 9.019 -12.863 hc 535 NIL_535    0.023
7597 H10B 29.087 7.339 -13.208 hc 535 NIL_535    0.023
7598 H10C 30.683 7.291 -15.131 hc 535 NIL_535    0.028
7599 H10D 31.065 8.977 -14.886 hc 535 NIL_535    0.028
7600 H10E 32.869 7.585 -13.986 h1 535 NIL_535    0.047
7601 H10F 32.150 8.582 -12.791 h1 535 NIL_535    0.047
7602 H10G 30.791 3.612 -13.895 h1 535 NIL_535    0.050
7603 H10H 30.127 5.256 -13.989 h1 535 NIL_535    0.050
7604 H10I 33.922 4.171 -13.751 hc 535 NIL_535    0.032
7605 H10J 34.117 5.895 -13.551 hc 535 NIL_535    0.032
7606 H10K 32.959 6.328 -15.619 h1 535 NIL_535    0.061
7607 H10L 36.970 5.676 -17.316 h1 535 NIL_535    0.052
7608 H10M 35.776 5.064 -18.461 h1 535 NIL_535    0.052
7609 H10N 37.213 3.843 -15.234 ha 535 NIL_535    0.063
7610 H10O 36.270 2.965 -19.219 ha 535 NIL_535    0.063
7611 H10P 37.942 1.656 -14.901 ha 535 NIL_535    0.063
7612 H10Q 36.965 0.735 -18.914 ha 535 NIL_535    0.063
7613 H10R 35.115 6.263 -16.138 hn 535 NIL_535    0.150
7614 C0U9 29.700 -3.811 -8.570 c3 536 NIL_536    0.131
7615 C0UA 28.358 -3.582 -9.336 c3 536 NIL_536    0.007
7616 C0UB 30.615 -4.422 -9.677 c3 536 NIL_536    0.046
7617 N07H 30.263 -2.553 -7.955 n 536 NIL_536   -0.284
7618 C0UC 29.360 -4.903 -7.543 c 536 NIL_536    0.510
7619 C0UD 28.434 -4.636 -10.452 c3 536 NIL_536    0.105
7620 N07I 29.808 -4.518 -10.902 n 536 NIL_536   -0.285
7621 O073 29.280 -6.084 -7.830 o 536 NIL_536   -0.544
7622 C0UE 27.388 -4.599 -11.544 c 536 NIL_536    0.510
7623 O074 26.204 -4.531 -11.281 o 536 NIL_536   -0.549
7624 H11L 28.314 -5.633 -10.019 h1 536 NIL_536    0.061
7625 H11M 31.501 -3.827 -9.855 h1 536 NIL_536    0.050
7626 H11N 30.963 -5.422 -9.408 h1 536 NIL_536    0.050
7627 H11O 28.301 -2.583 -9.774 hc 536 NIL_536    0.032
7628 H11P 27.485 -3.727 -8.694 hc 536 NIL_536    0.032
7629 C0UR 30.656 -5.663 10.789 c3 537 NIL_537    0.013
7630 N07N 31.665 -5.862 11.835 n 537 NIL_537   -0.314
7631 C0US 31.265 -5.898 9.387 c3 537 NIL_537   -0.010
7632 C0UT 30.206 -6.151 8.282 c3 537 NIL_537    0.101
7633 C0UU 29.534 -4.868 7.815 c 537 NIL_537    0.510
7634 N07O 30.803 -6.957 7.220 n 537 NIL_537   -0.302
7635 O079 29.045 -4.113 8.634 o 537 NIL_537   -0.550
7636 H121 29.403 -6.763 8.704 h1 537 NIL_537    0.061
7637 H122 31.908 -5.058 9.110 hc 537 NIL_537    0.031
7638 H123 31.910 -6.779 9.451 hc 537 NIL_537    0.031
7639 H124 30.258 -4.648 10.862 h1 537 NIL_537    0.047
7640 H125 29.844 -6.376 10.961 h1 537 NIL_537    0.047
7641 H126 31.241 -7.816 7.517 hn 537 NIL_537    0.150
7642 H127 32.571 -6.188 11.530 hn 537 NIL_537    0.149
7643 C0WG 38.010 0.823 14.469 c3 538 NIL_538    0.092
7644 C0WH 38.419 1.440 13.147 c 538 NIL_538    0.510
7645 O07H 38.380 2.636 12.923 o 538 NIL_538   -0.557
7646 H157 37.114 0.227 14.274 h1 538 NIL_538    0.057
7647 H158 38.791 0.126 14.781 h1 538 NIL_538    0.057
7648 C0QK 30.005 3.383 -16.756 c2 539 NIL_539    0.037
7649 C0QL 30.998 4.404 -16.607 c 539 NIL_539    0.510
7650 C0QM 29.040 3.130 -15.857 c2 539 NIL_539   -0.049
7651 C0QN 30.081 2.589 -17.834 c2 539 NIL_539   -0.049
7652 O063 31.411 4.906 -17.639 o 539 NIL_539   -0.535
7653 C0QO 28.199 2.106 -16.026 c2 539 NIL_539   -0.057
7654 C0QP 29.245 1.566 -17.995 c2 539 NIL_539   -0.057
7655 C0QQ 28.301 1.305 -17.088 c2 539 NIL_539   -0.031
7656 C0QR 27.379 0.116 -17.271 c3 539 NIL_539    0.036
7657 N06F 27.581 -1.015 -16.356 n 539 NIL_539   -0.310
7658 C0QS 28.759 -1.638 -16.113 c 539 NIL_539    0.510
7659 C0QT 28.617 -2.948 -15.348 c3 539 NIL_539    0.105
7660 O064 29.833 -1.192 -16.472 o 539 NIL_539   -0.553
7661 N06G 29.590 -4.012 -15.678 n 539 NIL_539   -0.283
7662 C0QU 28.758 -2.715 -13.832 c3 539 NIL_539    0.007
7663 C0QV 29.879 -4.747 -14.436 c3 539 NIL_539    0.046
7664 C0QW 29.123 -4.098 -13.243 c3 539 NIL_539    0.131
7665 N06H 27.851 -4.763 -12.813 n 539 NIL_539   -0.284
7666 C0QX 30.139 -3.965 -12.094 c 539 NIL_539    0.510
7667 C0QY 26.958 -5.313 -13.863 c3 539 NIL_539    0.015
7668 O065 31.211 -3.409 -12.238 o 539 NIL_539   -0.544
7669 C0QZ 26.545 -6.780 -13.605 c3 539 NIL_539   -0.040
7670 C0R0 27.738 -7.754 -13.611 c3 539 NIL_539   -0.064
7671 H0XQ 28.497 -7.456 -12.885 hc 539 NIL_539    0.023
7672 H0XR 28.197 -7.794 -14.600 hc 539 NIL_539    0.023
7673 H0XS 27.398 -8.758 -13.348 hc 539 NIL_539    0.023
7674 H0XT 25.834 -7.084 -14.375 hc 539 NIL_539    0.028
7675 H0XU 26.025 -6.855 -12.648 hc 539 NIL_539    0.028
7676 H0XV 27.432 -5.285 -14.842 h1 539 NIL_539    0.047
7677 H0XW 26.062 -4.687 -13.912 h1 539 NIL_539    0.047
7678 H0XX 30.950 -4.672 -14.251 h1 539 NIL_539    0.050
7679 H0XY 29.609 -5.801 -14.555 h1 539 NIL_539    0.050
7680 H0XZ 29.561 -1.995 -13.649 hc 539 NIL_539    0.032
7681 H0Y0 27.839 -2.309 -13.403 hc 539 NIL_539    0.032
7682 H0Y1 27.619 -3.334 -15.568 h1 539 NIL_539    0.061
7683 H0Y2 26.345 0.450 -17.161 h1 539 NIL_539    0.052
7684 H0Y3 27.481 -0.271 -18.289 h1 539 NIL_539    0.052
7685 H0Y4 29.353 0.929 -18.869 ha 539 NIL_539    0.063
7686 H0Y5 27.431 1.917 -15.279 ha 539 NIL_539    0.063
7687 H0Y6 30.857 2.736 -18.582 ha 539 NIL_539    0.063
7688 H0Y7 28.900 3.750 -14.982 ha 539 NIL_539    0.063
7689 H0Y8 26.741 -1.437 -15.988 hn 539 NIL_539    0.150
7690 C0U3 38.835 0.787 4.354 c3 540 NIL_540    0.046
7691 C0U4 38.334 -0.048 5.565 c3 540 NIL_540    0.131
7692 N07F 38.397 0.124 3.124 n 540 NIL_540   -0.285
7693 C0U5 37.601 -1.263 4.917 c3 540 NIL_540    0.007
7694 N07G 39.458 -0.495 6.458 n 540 NIL_540   -0.284
7695 C0U6 37.270 0.810 6.261 c 540 NIL_540    0.510
7696 C0U7 37.997 -1.242 3.429 c3 540 NIL_540    0.105
7697 O071 36.287 1.227 5.677 o 540 NIL_540   -0.547
7698 C0U8 36.953 -1.793 2.484 c 540 NIL_540    0.510
7699 O072 36.208 -2.691 2.831 o 540 NIL_540   -0.549
7700 H11G 38.874 -1.875 3.276 h1 540 NIL_540    0.061
7701 H11H 36.516 -1.164 5.002 hc 540 NIL_540    0.032
7702 H11I 37.869 -2.216 5.380 hc 540 NIL_540    0.032
7703 H11J 38.437 1.805 4.377 h1 540 NIL_540    0.050
7704 H11K 39.920 0.853 4.344 h1 540 NIL_540    0.050
@<TRIPOS>BOND
1 1 308 1 
2 1 5 1 
3 2 1 1 
4 3 2 2 
5 4 1 1 
6 6 14 1 
7 6 15 1 
8 7 556 1 
9 7 6 1 
10 7 12 1 
11 7 13 1 
12 8 6 1 
13 8 10 1 
14 8 11 1 
15 9 8 1 
16 16 554 1 
17 17 16 1 
18 17 19 1 
19 17 20 1 
20 17 21 1 
21 18 16 2 
22 19 29 1 
23 19 30 1 
24 20 27 1 
25 20 28 1 
26 21 560 1 
27 22 19 1 
28 22 26 1 
29 22 24 1 
30 23 20 1 
31 23 22 1 
32 25 24 2 
33 31 32 1 
34 31 33 1 
35 31 34 1 
36 31 35 1 
37 32 45 1 
38 32 46 1 
39 33 43 1 
40 33 44 1 
41 36 32 1 
42 36 40 1 
43 36 42 1 
44 37 33 1 
45 37 36 1 
46 37 304 1 
47 38 34 1 
48 39 35 2 
49 40 308 1 
50 41 40 2 
51 47 54 1 
52 47 55 1 
53 47 56 1 
54 48 47 1 
55 48 53 1 
56 49 48 1 
57 49 140 1 
58 50 49 1 
59 51 49 1 
60 52 48 1 
61 58 57 1 
62 58 62 1 
63 58 97 1 
64 59 57 2 
65 60 57 1 
66 60 63 1 
67 60 98 1 
68 61 58 1 
69 61 511 1 
70 61 64 1 
71 62 95 1 
72 62 96 1 
73 63 93 1 
74 63 94 1 
75 64 91 1 
76 64 92 1 
77 65 62 1 
78 65 64 1 
79 66 63 1 
80 66 70 1 
81 67 65 1 
82 67 71 1 
83 67 24 1 
84 68 65 1 
85 68 72 2 
86 68 23 1 
87 69 66 1 
88 69 90 1 
89 69 73 1 
90 70 89 1 
91 71 87 1 
92 71 88 1 
93 71 75 1 
94 73 86 1 
95 73 76 1 
96 74 70 1 
97 74 85 1 
98 74 76 1 
99 75 83 1 
100 75 84 1 
101 77 75 1 
102 78 76 1 
103 78 254 1 
104 79 78 2 
105 80 77 1 
106 81 77 1 
107 82 77 1 
108 99 570 1 
109 99 107 1 
110 99 108 1 
111 100 99 1 
112 100 105 1 
113 100 106 1 
114 101 100 1 
115 101 104 1 
116 102 101 1 
117 103 101 1 
118 109 116 1 
119 109 117 1 
120 109 118 1 
121 110 109 1 
122 110 115 1 
123 110 114 1 
124 111 110 1 
125 111 113 1 
126 111 635 1 
127 111 112 1 
128 119 131 1 
129 119 132 1 
130 120 119 1 
131 120 130 1 
132 120 123 1 
133 121 35 1 
134 121 119 1 
135 121 124 1 
136 122 120 1 
137 122 128 1 
138 122 129 1 
139 122 124 1 
140 123 369 1 
141 123 133 1 
142 125 34 1 
143 125 124 1 
144 126 125 2 
145 127 124 1 
146 134 147 1 
147 134 148 1 
148 135 134 1 
149 135 138 1 
150 135 146 1 
151 136 134 1 
152 136 140 1 
153 136 141 1 
154 136 139 1 
155 137 135 1 
156 137 139 1 
157 139 144 1 
158 139 145 1 
159 141 143 2 
160 142 138 2 
161 150 149 1 
162 151 150 1 
163 152 150 1 
164 153 150 1 
165 154 149 1 
166 155 149 1 
167 156 158 2 
168 157 161 1 
169 157 156 1 
170 157 159 1 
171 157 160 1 
172 159 169 1 
173 159 170 1 
174 160 167 1 
175 160 168 1 
176 162 159 1 
177 162 166 1 
178 163 160 1 
179 163 162 1 
180 163 634 1 
181 164 162 1 
182 164 635 1 
183 165 164 2 
184 171 179 1 
185 171 180 1 
186 172 171 1 
187 172 173 1 
188 172 177 1 
189 172 178 1 
190 174 173 1 
191 175 173 1 
192 176 173 1 
193 181 191 1 
194 181 192 1 
195 182 181 1 
196 182 190 1 
197 183 181 1 
198 183 189 1 
199 184 182 1 
200 184 452 1 
201 185 182 1 
202 185 194 1 
203 185 453 1 
204 186 183 1 
205 186 193 1 
206 186 2 1 
207 187 184 2 
208 188 183 1 
209 195 202 1 
210 195 203 1 
211 195 204 1 
212 196 195 1 
213 196 200 1 
214 196 201 1 
215 197 196 1 
216 198 197 1 
217 199 197 1 
218 206 205 1 
219 206 375 1 
220 206 209 1 
221 207 205 2 
222 208 206 1 
223 210 223 1 
224 211 210 1 
225 211 214 1 
226 212 210 1 
227 212 221 1 
228 212 222 1 
229 212 215 1 
230 213 210 1 
231 213 216 2 
232 214 219 1 
233 214 220 1 
234 215 214 1 
235 217 215 1 
236 217 333 1 
237 217 224 1 
238 218 215 1 
239 226 595 1 
240 226 225 1 
241 227 226 1 
242 227 230 1 
243 228 227 1 
244 228 239 1 
245 228 240 1 
246 228 231 1 
247 229 227 1 
248 229 237 1 
249 229 238 1 
250 229 232 1 
251 230 593 1 
252 232 326 1 
253 232 231 1 
254 233 230 2 
255 234 330 1 
256 234 231 1 
257 235 234 2 
258 236 231 1 
259 241 244 1 
260 242 241 1 
261 242 245 2 
262 242 523 1 
263 243 241 1 
264 243 281 1 
265 243 246 1 
266 244 280 1 
267 246 279 1 
268 247 244 1 
269 247 278 1 
270 248 247 1 
271 248 246 1 
272 249 248 1 
273 249 276 1 
274 249 277 1 
275 250 249 1 
276 250 282 1 
277 251 250 1 
278 251 253 2 
279 251 252 1 
280 252 275 1 
281 254 252 1 
282 255 252 1 
283 255 273 1 
284 255 274 1 
285 256 254 1 
286 256 271 1 
287 256 272 1 
288 257 255 1 
289 257 256 1 
290 257 259 1 
291 258 257 1 
292 258 260 1 
293 260 269 1 
294 260 270 1 
295 261 259 2 
296 262 260 1 
297 262 267 1 
298 262 268 1 
299 263 262 1 
300 263 266 1 
301 264 263 1 
302 265 263 1 
303 283 290 1 
304 283 291 1 
305 283 292 1 
306 284 283 1 
307 284 289 1 
308 285 284 1 
309 286 285 1 
310 287 285 1 
311 288 284 1 
312 293 294 1 
313 293 295 1 
314 293 301 1 
315 293 302 1 
316 294 161 1 
317 294 299 1 
318 294 300 1 
319 296 295 1 
320 297 295 1 
321 298 295 1 
322 303 304 2 
323 305 304 1 
324 306 305 1 
325 306 316 1 
326 306 317 1 
327 307 305 1 
328 307 314 1 
329 307 315 1 
330 308 305 1 
331 309 306 1 
332 309 313 1 
333 309 311 1 
334 310 307 1 
335 310 309 1 
336 310 149 1 
337 312 311 2 
338 319 318 1 
339 319 371 1 
340 320 319 1 
341 321 319 1 
342 322 318 1 
343 323 318 1 
344 324 318 1 
345 326 325 2 
346 327 326 1 
347 328 327 1 
348 328 338 1 
349 328 339 1 
350 328 331 1 
351 329 327 1 
352 329 332 1 
353 329 336 1 
354 329 337 1 
355 330 327 1 
356 332 331 1 
357 333 331 1 
358 334 333 2 
359 335 331 1 
360 340 205 1 
361 340 353 1 
362 341 340 1 
363 341 350 1 
364 341 351 1 
365 341 342 1 
366 342 349 1 
367 342 348 1 
368 343 342 1 
369 343 345 1 
370 343 347 1 
371 343 344 1 
372 344 140 1 
373 345 141 1 
374 345 352 1 
375 346 344 2 
376 354 364 1 
377 354 365 1 
378 355 623 1 
379 355 354 1 
380 355 367 1 
381 356 354 1 
382 356 362 1 
383 356 363 1 
384 357 356 1 
385 357 359 1 
386 357 361 1 
387 358 161 1 
388 358 357 1 
389 358 360 2 
390 359 156 1 
391 359 366 1 
392 368 369 2 
393 370 369 1 
394 370 382 1 
395 371 370 1 
396 372 370 1 
397 372 380 1 
398 372 381 1 
399 373 371 1 
400 373 378 1 
401 373 379 1 
402 374 372 1 
403 374 373 1 
404 374 376 1 
405 375 374 1 
406 377 376 2 
407 383 396 1 
408 383 397 1 
409 384 383 1 
410 384 395 1 
411 385 383 1 
412 385 390 1 
413 386 557 1 
414 386 384 1 
415 387 556 1 
416 387 384 1 
417 387 391 2 
418 388 385 1 
419 388 386 1 
420 388 393 1 
421 388 394 1 
422 389 385 1 
423 389 392 2 
424 390 197 1 
425 398 406 1 
426 398 407 1 
427 399 398 1 
428 399 404 1 
429 399 405 1 
430 400 398 1 
431 401 400 1 
432 402 400 1 
433 403 400 1 
434 408 421 1 
435 408 422 1 
436 408 410 1 
437 409 408 1 
438 409 411 1 
439 409 412 1 
440 409 413 1 
441 410 571 1 
442 411 419 1 
443 411 420 1 
444 412 137 1 
445 413 138 1 
446 413 399 1 
447 414 410 1 
448 414 411 1 
449 414 418 1 
450 415 412 2 
451 416 414 1 
452 416 570 1 
453 416 417 2 
454 423 430 1 
455 423 431 1 
456 423 432 1 
457 424 423 1 
458 424 428 1 
459 424 429 1 
460 425 21 1 
461 425 424 1 
462 425 427 1 
463 426 425 1 
464 433 434 1 
465 433 435 1 
466 433 436 1 
467 433 437 1 
468 434 446 1 
469 434 447 1 
470 435 444 1 
471 435 445 1 
472 436 502 1 
473 438 434 1 
474 438 443 1 
475 439 259 1 
476 439 435 1 
477 439 438 1 
478 440 437 2 
479 441 258 1 
480 441 438 1 
481 441 442 2 
482 448 450 1 
483 448 461 1 
484 448 462 1 
485 449 448 1 
486 449 451 1 
487 449 452 1 
488 449 453 1 
489 450 389 1 
490 451 459 1 
491 451 460 1 
492 452 584 1 
493 454 450 1 
494 454 451 1 
495 454 458 1 
496 455 453 2 
497 456 454 1 
498 456 390 1 
499 456 457 2 
500 463 476 1 
501 463 477 1 
502 464 463 1 
503 464 475 1 
504 464 466 1 
505 464 467 1 
506 465 463 1 
507 465 470 1 
508 465 469 1 
509 465 468 1 
510 466 528 1 
511 467 527 1 
512 468 466 1 
513 468 473 1 
514 468 474 1 
515 469 575 1 
516 469 171 1 
517 470 573 1 
518 471 467 2 
519 472 470 2 
520 478 632 1 
521 478 285 1 
522 479 478 1 
523 479 481 1 
524 479 482 1 
525 480 479 1 
526 480 491 1 
527 480 492 1 
528 480 483 1 
529 481 489 1 
530 481 490 1 
531 482 631 1 
532 483 488 1 
533 484 481 1 
534 484 483 1 
535 484 437 1 
536 485 482 2 
537 486 483 1 
538 486 436 1 
539 487 486 2 
540 493 332 1 
541 494 493 1 
542 495 494 1 
543 496 494 1 
544 497 494 1 
545 498 493 1 
546 499 493 1 
547 500 507 1 
548 500 508 1 
549 500 509 1 
550 501 500 1 
551 502 501 1 
552 503 502 1 
553 504 502 1 
554 505 501 1 
555 506 501 1 
556 511 510 2 
557 512 511 1 
558 512 513 1 
559 512 514 1 
560 515 513 1 
561 516 514 1 
562 517 516 1 
563 517 515 1 
564 518 517 1 
565 519 518 1 
566 520 519 1 
567 520 522 2 
568 520 521 1 
569 523 521 1 
570 524 521 1 
571 524 526 1 
572 525 523 1 
573 525 526 1 
574 527 526 1 
575 528 526 1 
576 529 527 1 
577 530 528 2 
578 531 529 1 
579 532 531 1 
580 533 532 1 
581 534 532 1 
582 535 532 1 
583 536 531 1 
584 537 531 1 
585 538 529 1 
586 539 529 1 
587 540 525 1 
588 541 525 1 
589 542 524 1 
590 543 524 1 
591 544 521 1 
592 545 518 1 
593 546 518 1 
594 547 516 1 
595 548 515 1 
596 549 514 1 
597 550 513 1 
598 551 519 1 
599 552 565 1 
600 552 566 1 
601 553 552 1 
602 553 557 1 
603 554 552 1 
604 554 558 1 
605 555 553 1 
606 555 563 1 
607 555 564 1 
608 555 558 1 
609 556 553 1 
610 559 557 2 
611 560 558 1 
612 561 560 2 
613 562 558 1 
614 568 567 1 
615 568 580 1 
616 568 581 1 
617 569 567 1 
618 569 578 1 
619 569 579 1 
620 570 567 1 
621 571 567 1 
622 572 568 1 
623 572 577 1 
624 572 575 1 
625 573 569 1 
626 573 572 1 
627 574 571 2 
628 576 575 2 
629 582 589 1 
630 582 590 1 
631 582 591 1 
632 583 582 1 
633 583 584 1 
634 583 587 1 
635 583 588 1 
636 585 584 1 
637 586 584 1 
638 592 605 1 
639 592 593 1 
640 592 594 1 
641 592 595 1 
642 594 603 1 
643 594 604 1 
644 596 593 1 
645 596 601 1 
646 596 602 1 
647 597 594 1 
648 597 596 1 
649 597 600 1 
650 598 595 2 
651 599 597 1 
652 599 311 1 
653 599 606 1 
654 607 213 1 
655 608 607 1 
656 608 610 1 
657 608 611 1 
658 608 612 1 
659 609 607 1 
660 610 621 1 
661 610 622 1 
662 611 619 1 
663 611 620 1 
664 612 211 1 
665 613 610 1 
666 613 618 1 
667 614 376 1 
668 614 613 1 
669 614 611 1 
670 615 612 2 
671 616 375 1 
672 616 613 1 
673 616 617 2 
674 624 623 1 
675 624 330 1 
676 624 627 1 
677 625 623 2 
678 626 624 1 
679 628 641 1 
680 628 642 1 
681 629 628 1 
682 629 640 1 
683 630 628 1 
684 630 635 1 
685 631 629 1 
686 632 629 1 
687 632 636 2 
688 633 630 1 
689 633 631 1 
690 633 638 1 
691 633 639 1 
692 634 630 1 
693 634 637 2 
694 643 724 1 
695 643 651 1 
696 643 652 1 
697 644 643 1 
698 644 649 1 
699 644 650 1 
700 645 644 1 
701 645 648 1 
702 645 646 1 
703 645 647 1 
704 653 661 1 
705 653 662 1 
706 654 990 1 
707 654 653 1 
708 654 659 1 
709 654 660 1 
710 655 653 1 
711 655 657 1 
712 655 658 1 
713 656 655 1 
714 664 930 1 
715 664 663 2 
716 665 664 1 
717 665 667 1 
718 665 666 1 
719 666 703 1 
720 666 668 1 
721 667 702 1 
722 667 669 1 
723 668 701 1 
724 669 700 1 
725 670 668 1 
726 670 669 1 
727 671 670 1 
728 671 698 1 
729 671 699 1 
730 672 671 1 
731 672 704 1 
732 672 673 1 
733 674 673 1 
734 674 697 1 
735 675 673 2 
736 676 796 1 
737 676 674 1 
738 676 678 1 
739 677 674 1 
740 677 695 1 
741 677 696 1 
742 677 679 1 
743 678 693 1 
744 678 694 1 
745 679 678 1 
746 680 679 1 
747 680 769 1 
748 681 679 1 
749 681 768 1 
750 681 683 2 
751 682 680 1 
752 682 691 1 
753 682 692 1 
754 682 684 1 
755 684 689 1 
756 684 690 1 
757 684 685 1 
758 685 688 1 
759 686 685 1 
760 687 685 1 
761 705 709 1 
762 706 705 1 
763 706 719 1 
764 706 720 1 
765 706 710 1 
766 707 705 1 
767 707 717 1 
768 707 718 1 
769 707 711 1 
770 708 705 1 
771 708 712 1 
772 710 714 1 
773 710 716 1 
774 711 710 1 
775 711 1068 1 
776 713 709 2 
777 714 1072 1 
778 715 714 2 
779 721 725 1 
780 721 723 1 
781 721 724 1 
782 722 726 1 
783 722 721 1 
784 722 734 1 
785 722 735 1 
786 723 733 1 
787 723 732 1 
788 725 728 2 
789 726 729 1 
790 726 731 1 
791 727 723 1 
792 727 726 1 
793 729 730 2 
794 737 736 2 
795 737 738 1 
796 738 741 1 
797 739 738 1 
798 739 742 1 
799 739 749 1 
800 739 750 1 
801 740 738 1 
802 740 743 1 
803 740 747 1 
804 740 748 1 
805 741 791 1 
806 742 746 1 
807 743 742 1 
808 744 742 1 
809 745 744 2 
810 751 761 1 
811 751 762 1 
812 751 753 1 
813 751 752 1 
814 752 790 1 
815 752 764 1 
816 753 754 1 
817 753 759 1 
818 753 760 1 
819 754 756 1 
820 754 758 1 
821 755 990 1 
822 755 754 1 
823 755 757 2 
824 756 985 1 
825 756 763 1 
826 765 778 1 
827 765 779 1 
828 765 767 1 
829 766 765 1 
830 766 777 1 
831 766 768 1 
832 766 769 1 
833 767 772 1 
834 767 770 1 
835 767 771 1 
836 768 770 1 
837 769 773 2 
838 770 775 1 
839 770 776 1 
840 771 729 1 
841 772 727 1 
842 774 772 2 
843 780 788 1 
844 780 789 1 
845 780 782 1 
846 780 781 1 
847 781 1174 1 
848 781 786 1 
849 781 787 1 
850 783 782 1 
851 784 782 1 
852 785 782 1 
853 790 792 2 
854 790 791 1 
855 793 791 1 
856 794 791 1 
857 795 796 1 
858 795 797 1 
859 795 798 1 
860 796 799 2 
861 797 800 1 
862 797 835 1 
863 798 801 1 
864 798 834 1 
865 800 833 1 
866 801 832 1 
867 802 800 1 
868 802 801 1 
869 803 802 1 
870 803 830 1 
871 803 831 1 
872 804 803 1 
873 804 836 1 
874 804 805 1 
875 806 805 1 
876 806 829 1 
877 807 805 2 
878 808 806 1 
879 808 810 1 
880 809 806 1 
881 809 827 1 
882 809 828 1 
883 809 811 1 
884 810 825 1 
885 810 826 1 
886 811 810 1 
887 811 812 1 
888 811 813 1 
889 814 812 1 
890 814 823 1 
891 814 824 1 
892 815 813 2 
893 816 814 1 
894 816 821 1 
895 816 822 1 
896 816 817 1 
897 817 819 1 
898 817 820 1 
899 818 817 1 
900 838 837 1 
901 838 849 1 
902 839 837 1 
903 839 844 1 
904 839 842 1 
905 839 843 1 
906 840 1175 1 
907 840 838 1 
908 840 842 1 
909 841 1174 1 
910 841 838 1 
911 841 845 2 
912 842 847 1 
913 842 848 1 
914 846 843 2 
915 850 837 1 
916 851 837 1 
917 852 865 1 
918 852 866 1 
919 853 852 1 
920 853 855 1 
921 853 856 1 
922 853 857 1 
923 854 852 1 
924 854 858 1 
925 854 843 1 
926 855 858 1 
927 855 863 1 
928 855 864 1 
929 857 859 2 
930 860 858 1 
931 860 844 1 
932 861 860 2 
933 862 858 1 
934 867 870 1 
935 867 871 1 
936 868 867 1 
937 868 880 1 
938 868 881 1 
939 868 872 1 
940 869 867 1 
941 869 878 1 
942 869 879 1 
943 869 873 1 
944 871 874 2 
945 872 877 1 
946 872 875 1 
947 872 873 1 
948 873 813 1 
949 875 812 1 
950 876 875 2 
951 882 895 1 
952 882 883 1 
953 883 892 1 
954 883 893 1 
955 884 883 1 
956 884 890 1 
957 884 891 1 
958 884 885 1 
959 885 889 1 
960 885 887 1 
961 886 1135 1 
962 886 885 1 
963 886 888 2 
964 887 1136 1 
965 887 894 1 
966 896 909 1 
967 896 897 1 
968 896 898 1 
969 896 899 1 
970 897 900 1 
971 898 907 1 
972 898 908 1 
973 898 901 1 
974 899 902 2 
975 900 905 1 
976 900 906 1 
977 901 900 1 
978 903 901 1 
979 903 910 1 
980 904 901 1 
981 911 918 1 
982 911 919 1 
983 911 920 1 
984 912 911 1 
985 912 916 1 
986 912 917 1 
987 913 912 1 
988 913 915 1 
989 914 913 1 
990 921 1072 1 
991 921 922 1 
992 921 924 1 
993 921 925 1 
994 922 1241 1 
995 923 922 2 
996 926 927 1 
997 926 928 2 
998 926 929 1 
999 927 966 1 
1000 927 930 1 
1001 927 931 1 
1002 929 967 1 
1003 929 932 1 
1004 930 933 1 
1005 931 934 1 
1006 931 964 1 
1007 931 965 1 
1008 932 962 1 
1009 932 963 1 
1010 932 935 1 
1011 933 960 1 
1012 933 961 1 
1013 934 933 1 
1014 934 936 1 
1015 934 937 1 
1016 935 938 1 
1017 935 939 1 
1018 936 940 1 
1019 938 942 1 
1020 938 959 1 
1021 939 943 1 
1022 939 958 1 
1023 940 944 1 
1024 940 956 1 
1025 940 957 1 
1026 941 937 2 
1027 942 955 1 
1028 942 945 1 
1029 943 954 1 
1030 943 945 1 
1031 944 952 1 
1032 944 953 1 
1033 944 946 1 
1034 945 947 1 
1035 946 949 1 
1036 946 950 1 
1037 946 951 1 
1038 947 808 1 
1039 948 947 2 
1040 968 975 1 
1041 968 976 1 
1042 968 977 1 
1043 969 968 1 
1044 969 974 1 
1045 969 970 1 
1046 969 973 1 
1047 970 1135 1 
1048 971 970 1 
1049 972 970 1 
1050 978 984 1 
1051 978 982 1 
1052 978 983 1 
1053 979 978 1 
1054 979 1117 1 
1055 979 981 1 
1056 980 979 1 
1057 985 986 1 
1058 985 987 2 
1059 986 988 1 
1060 986 989 1 
1061 990 986 1 
1062 991 988 1 
1063 991 995 1 
1064 992 989 1 
1065 992 991 1 
1066 992 1088 1 
1067 993 991 1 
1068 993 1089 1 
1069 994 993 2 
1070 996 989 1 
1071 997 989 1 
1072 998 988 1 
1073 999 988 1 
1074 1000 1013 1 
1075 1000 1014 1 
1076 1000 1002 1 
1077 1000 1001 1 
1078 1002 725 1 
1079 1002 1006 1 
1080 1003 1001 1 
1081 1003 1012 1 
1082 1003 1006 1 
1083 1003 1011 1 
1084 1004 1132 1 
1085 1004 1001 1 
1086 1004 1007 2 
1087 1005 1133 1 
1088 1005 1001 1 
1089 1005 1105 1 
1090 1006 1008 1 
1091 1006 1010 1 
1092 1008 724 1 
1093 1009 1008 2 
1094 1015 1017 2 
1095 1015 1172 1 
1096 1016 1015 1 
1097 1016 1018 1 
1098 1016 1019 1 
1099 1016 1020 1 
1100 1018 1028 1 
1101 1018 1029 1 
1102 1019 1026 1 
1103 1019 1027 1 
1104 1019 1022 1 
1105 1020 1178 1 
1106 1021 1018 1 
1107 1021 1022 1 
1108 1021 1023 1 
1109 1021 1025 1 
1110 1022 937 1 
1111 1023 936 1 
1112 1023 1024 2 
1113 1030 743 1 
1114 1030 1035 1 
1115 1030 1036 1 
1116 1031 1030 1 
1117 1031 1033 1 
1118 1031 1034 1 
1119 1031 1032 1 
1120 1037 1038 1 
1121 1037 1044 1 
1122 1038 1042 1 
1123 1038 1043 1 
1124 1039 1205 1 
1125 1039 1038 1 
1126 1039 1040 1 
1127 1039 1041 1 
1128 1045 1037 1 
1129 1046 1037 1 
1130 1047 771 1 
1131 1047 1055 1 
1132 1047 1056 1 
1133 1048 1047 1 
1134 1048 1053 1 
1135 1048 1054 1 
1136 1048 1049 1 
1137 1049 1052 1 
1138 1050 1049 1 
1139 1051 1049 1 
1140 1057 1064 1 
1141 1057 1065 1 
1142 1057 1066 1 
1143 1058 1057 1 
1144 1058 1062 1 
1145 1058 1063 1 
1146 1059 1020 1 
1147 1059 1058 1 
1148 1059 1061 1 
1149 1060 1059 1 
1150 1067 1068 2 
1151 1069 1068 1 
1152 1069 1071 1 
1153 1069 1072 1 
1154 1070 1069 1 
1155 1070 1080 1 
1156 1070 1081 1 
1157 1070 1073 1 
1158 1071 1078 1 
1159 1071 1079 1 
1160 1071 1074 1 
1161 1074 1073 1 
1162 1074 1097 1 
1163 1075 903 1 
1164 1075 1073 1 
1165 1076 1075 2 
1166 1077 1073 1 
1167 1082 1084 1 
1168 1082 1095 1 
1169 1082 1096 1 
1170 1083 1082 1 
1171 1083 1094 1 
1172 1083 1085 1 
1173 1083 1086 1 
1174 1084 1087 1 
1175 1084 1088 1 
1176 1084 1089 1 
1177 1085 1087 1 
1178 1086 1090 2 
1179 1087 1092 1 
1180 1087 1093 1 
1181 1088 1091 2 
1182 1089 913 1 
1183 1097 1103 1 
1184 1097 1102 1 
1185 1098 1097 1 
1186 1098 1100 1 
1187 1098 1101 1 
1188 1099 1098 1 
1189 1104 1112 1 
1190 1104 1113 1 
1191 1104 1106 1 
1192 1105 1104 1 
1193 1105 1110 1 
1194 1105 1111 1 
1195 1106 1109 1 
1196 1107 1106 1 
1197 1108 1106 1 
1198 1115 1114 2 
1199 1115 1264 1 
1200 1116 1115 1 
1201 1116 1128 1 
1202 1117 1116 1 
1203 1118 1116 1 
1204 1118 1126 1 
1205 1118 1127 1 
1206 1118 1120 1 
1207 1119 1117 1 
1208 1119 1124 1 
1209 1119 1125 1 
1210 1119 1120 1 
1211 1120 1122 1 
1212 1121 1120 1 
1213 1121 1229 1 
1214 1122 1227 1 
1215 1123 1122 2 
1216 1129 1142 1 
1217 1129 1143 1 
1218 1129 1131 1 
1219 1130 1129 1 
1220 1130 1141 1 
1221 1130 1132 1 
1222 1130 1133 1 
1223 1131 1135 1 
1224 1131 1136 1 
1225 1131 1134 1 
1226 1132 1134 1 
1227 1134 1139 1 
1228 1134 1140 1 
1229 1136 1138 2 
1230 1137 1133 2 
1231 1144 1153 1 
1232 1144 1152 1 
1233 1145 1144 1 
1234 1146 1145 1 
1235 1146 856 1 
1236 1147 1146 1 
1237 1148 1146 1 
1238 1149 1145 1 
1239 1150 1145 1 
1240 1151 1144 1 
1241 1155 899 1 
1242 1155 1154 1 
1243 1156 1155 1 
1244 1156 1157 1 
1245 1156 1158 1 
1246 1156 1159 1 
1247 1157 1168 1 
1248 1157 1169 1 
1249 1157 1160 1 
1250 1158 1166 1 
1251 1158 1167 1 
1252 1158 1161 1 
1253 1159 897 1 
1254 1159 1162 2 
1255 1160 1165 1 
1256 1160 1163 1 
1257 1161 737 1 
1258 1161 1160 1 
1259 1163 741 1 
1260 1163 1164 2 
1261 1170 1183 1 
1262 1170 1184 1 
1263 1170 1172 1 
1264 1171 1170 1 
1265 1171 1173 1 
1266 1171 1174 1 
1267 1171 1175 1 
1268 1172 1176 1 
1269 1173 1181 1 
1270 1173 1182 1 
1271 1173 1176 1 
1272 1175 1177 2 
1273 1176 1178 1 
1274 1176 1180 1 
1275 1179 1178 2 
1276 1185 1187 1 
1277 1185 1188 1 
1278 1185 1198 1 
1279 1186 1225 1 
1280 1186 1185 1 
1281 1186 1189 1 
1282 1187 1190 1 
1283 1187 1196 1 
1284 1187 1197 1 
1285 1188 1220 1 
1286 1188 1191 2 
1287 1189 1190 1 
1288 1189 1194 1 
1289 1189 1195 1 
1290 1190 1192 1 
1291 1190 1193 1 
1292 1192 744 1 
1293 1192 1199 1 
1294 1200 882 1 
1295 1201 1200 1 
1296 1201 1121 1 
1297 1202 1200 2 
1298 1203 1201 1 
1299 1204 1201 1 
1300 1205 1086 1 
1301 1206 1205 1 
1302 1206 1209 1 
1303 1206 1207 1 
1304 1206 1208 1 
1305 1207 1218 1 
1306 1207 1219 1 
1307 1208 1217 1 
1308 1208 1216 1 
1309 1209 1085 1 
1310 1209 1212 2 
1311 1210 1207 1 
1312 1210 1213 1 
1313 1210 1215 1 
1314 1211 1208 1 
1315 1211 1210 1 
1316 1211 871 1 
1317 1213 870 1 
1318 1214 1213 2 
1319 1220 1221 1 
1320 1220 1222 1 
1321 1223 1221 1 
1322 1223 1234 1 
1323 1223 1235 1 
1324 1223 1226 1 
1325 1224 1221 1 
1326 1224 1233 1 
1327 1224 1227 1 
1328 1224 1232 1 
1329 1225 1221 1 
1330 1225 1228 2 
1331 1226 1229 1 
1332 1226 1231 1 
1333 1227 1226 1 
1334 1230 1229 2 
1335 1236 1246 1 
1336 1236 1247 1 
1337 1236 1238 1 
1338 1236 1237 1 
1339 1237 1245 1 
1340 1237 1240 1 
1341 1238 1241 1 
1342 1238 1243 1 
1343 1238 1244 1 
1344 1239 1237 1 
1345 1239 856 1 
1346 1239 1242 2 
1347 1240 1249 1 
1348 1240 857 1 
1349 1241 1248 1 
1350 1250 1259 1 
1351 1250 1257 1 
1352 1250 1258 1 
1353 1251 1250 1 
1354 1251 1255 1 
1355 1251 1256 1 
1356 1252 844 1 
1357 1252 1251 1 
1358 1252 1253 1 
1359 1252 1254 1 
1360 1260 1272 1 
1361 1260 1273 1 
1362 1260 1261 1 
1363 1260 1262 1 
1364 1261 1271 1 
1365 1262 709 1 
1366 1263 1261 1 
1367 1263 1269 1 
1368 1263 1270 1 
1369 1264 1261 1 
1370 1264 1274 1 
1371 1265 1262 1 
1372 1265 1263 1 
1373 1265 1268 1 
1374 1265 1266 1 
1375 1266 708 1 
1376 1267 1266 2 
1377 1275 1284 1 
1378 1275 1282 1 
1379 1275 1283 1 
1380 1276 1275 1 
1381 1276 1281 1 
1382 1277 870 1 
1383 1277 1276 1 
1384 1278 1277 1 
1385 1279 1277 1 
1386 1280 1276 1 
1387 1285 1298 1 
1388 1285 1299 1 
1389 1285 1286 1 
1390 1285 1287 1 
1391 1287 1466 1 
1392 1287 1291 1 
1393 1288 1286 1 
1394 1288 1297 1 
1395 1288 1291 1 
1396 1288 1296 1 
1397 1289 1286 1 
1398 1289 1785 1 
1399 1289 1292 2 
1400 1290 1286 1 
1401 1290 1786 1 
1402 1290 1773 1 
1403 1291 1293 1 
1404 1291 1295 1 
1405 1293 1465 1 
1406 1294 1293 2 
1407 1300 1313 1 
1408 1300 1303 1 
1409 1301 1300 1 
1410 1301 1304 1 
1411 1302 1300 1 
1412 1302 1311 1 
1413 1302 1312 1 
1414 1302 1305 1 
1415 1303 1306 2 
1416 1304 1309 1 
1417 1304 1310 1 
1418 1304 1305 1 
1419 1305 1308 1 
1420 1307 1305 1 
1421 1307 1314 1 
1422 1315 1322 1 
1423 1315 1323 1 
1424 1315 1324 1 
1425 1315 1316 1 
1426 1316 1321 1 
1427 1316 1320 1 
1428 1317 1870 1 
1429 1317 1316 1 
1430 1317 1318 1 
1431 1317 1319 1 
1432 1326 1325 2 
1433 1327 1326 1 
1434 1327 1330 1 
1435 1328 1327 1 
1436 1328 1338 1 
1437 1328 1339 1 
1438 1328 1331 1 
1439 1329 1327 1 
1440 1329 1336 1 
1441 1329 1337 1 
1442 1329 1332 1 
1443 1330 1907 1 
1444 1331 1335 1 
1445 1331 1332 1 
1446 1331 1333 1 
1447 1334 1333 2 
1448 1341 1340 1 
1449 1342 1340 2 
1450 1343 1340 1 
1451 1344 1341 1 
1452 1345 1341 1 
1453 1346 1343 1 
1454 1347 1344 1 
1455 1348 1345 1 
1456 1348 1347 1 
1457 1348 1351 1 
1458 1348 1350 1 
1459 1349 1346 1 
1460 1349 1352 1 
1461 1349 1353 1 
1462 1351 1355 2 
1463 1352 1356 1 
1464 1353 1357 1 
1465 1354 1350 1 
1466 1354 1358 1 
1467 1359 1356 1 
1468 1359 1357 1 
1469 1360 1358 1 
1470 1361 1359 1 
1471 1362 1361 2 
1472 1363 1360 1 
1473 1364 1360 1 
1474 1365 1360 1 
1475 1366 1358 1 
1476 1367 1358 1 
1477 1368 1357 1 
1478 1369 1356 1 
1479 1370 1354 1 
1480 1371 1354 1 
1481 1372 1353 1 
1482 1373 1352 1 
1483 1374 1347 1 
1484 1375 1347 1 
1485 1376 1346 1 
1486 1377 1346 1 
1487 1378 1345 1 
1488 1379 1345 1 
1489 1380 1341 1 
1490 1381 1343 1 
1491 1382 1465 1 
1492 1382 1390 1 
1493 1382 1391 1 
1494 1382 1383 1 
1495 1383 1388 1 
1496 1383 1389 1 
1497 1384 1383 1 
1498 1384 1387 1 
1499 1384 1386 1 
1500 1385 1384 1 
1501 1392 1399 1 
1502 1392 1400 1 
1503 1392 1401 1 
1504 1392 1393 1 
1505 1393 1397 1 
1506 1393 1398 1 
1507 1394 1682 1 
1508 1394 1393 1 
1509 1394 1396 1 
1510 1395 1394 1 
1511 1403 1402 2 
1512 1404 1403 1 
1513 1404 1416 1 
1514 1404 1405 1 
1515 1404 1406 1 
1516 1405 1407 1 
1517 1406 1414 1 
1518 1406 1415 1 
1519 1406 1408 1 
1520 1407 1412 1 
1521 1407 1413 1 
1522 1408 1407 1 
1523 1408 1410 1 
1524 1409 1408 1 
1525 1411 1410 2 
1526 1417 1418 1 
1527 1417 1419 2 
1528 1417 1553 1 
1529 1418 1420 1 
1530 1418 1421 1 
1531 1418 1422 1 
1532 1420 1430 1 
1533 1420 1431 1 
1534 1420 1423 1 
1535 1421 1428 1 
1536 1421 1429 1 
1537 1421 1424 1 
1538 1422 1559 1 
1539 1423 1427 1 
1540 1424 1351 1 
1541 1424 1423 1 
1542 1425 1350 1 
1543 1425 1423 1 
1544 1425 1426 2 
1545 1432 1445 1 
1546 1432 1446 1 
1547 1432 1434 1 
1548 1433 1432 1 
1549 1433 1444 1 
1550 1433 1435 1 
1551 1433 1436 1 
1552 1434 1439 1 
1553 1434 1437 1 
1554 1434 1438 1 
1555 1435 1437 1 
1556 1436 1440 2 
1557 1437 1442 1 
1558 1437 1443 1 
1559 1438 1470 1 
1560 1439 1468 1 
1561 1441 1439 2 
1562 1447 1460 1 
1563 1447 1461 1 
1564 1448 1447 1 
1565 1448 1459 1 
1566 1448 1450 1 
1567 1448 1451 1 
1568 1449 1447 1 
1569 1449 1453 1 
1570 1449 1454 1 
1571 1449 1452 1 
1572 1450 1556 1 
1573 1451 1555 1 
1574 1451 1455 2 
1575 1452 1450 1 
1576 1452 1457 1 
1577 1452 1458 1 
1578 1453 1456 2 
1579 1463 1462 1 
1580 1463 1475 1 
1581 1463 1476 1 
1582 1464 1462 1 
1583 1464 1473 1 
1584 1464 1474 1 
1585 1465 1462 1 
1586 1466 1462 1 
1587 1467 1463 1 
1588 1467 1472 1 
1589 1467 1470 1 
1590 1468 1464 1 
1591 1468 1467 1 
1592 1469 1466 2 
1593 1471 1470 2 
1594 1478 1477 2 
1595 1478 1344 1 
1596 1479 1478 1 
1597 1480 1479 1 
1598 1480 1482 1 
1599 1481 1479 1 
1600 1481 1483 1 
1601 1484 1482 1 
1602 1484 1483 1 
1603 1484 1485 1 
1604 1486 1485 1 
1605 1487 1486 1 
1606 1487 1489 2 
1607 1488 1490 1 
1608 1488 1487 1 
1609 1488 1491 1 
1610 1488 1511 1 
1611 1490 1798 1 
1612 1491 1509 1 
1613 1491 1510 1 
1614 1492 1490 1 
1615 1492 1507 1 
1616 1492 1508 1 
1617 1493 1491 1 
1618 1493 1492 1 
1619 1494 1493 1 
1620 1494 1496 1 
1621 1494 1436 1 
1622 1495 1493 1 
1623 1495 1497 2 
1624 1495 1435 1 
1625 1496 1505 1 
1626 1496 1506 1 
1627 1498 1496 1 
1628 1498 1503 1 
1629 1498 1504 1 
1630 1498 1499 1 
1631 1500 1499 1 
1632 1501 1499 1 
1633 1502 1499 1 
1634 1512 1485 1 
1635 1513 1485 1 
1636 1514 1483 1 
1637 1515 1482 1 
1638 1516 1481 1 
1639 1517 1480 1 
1640 1518 1486 1 
1641 1519 1521 1 
1642 1519 1520 1 
1643 1520 1524 1 
1644 1520 1523 1 
1645 1522 1520 1 
1646 1522 1533 1 
1647 1522 1534 1 
1648 1522 1525 1 
1649 1523 1531 1 
1650 1523 1532 1 
1651 1523 1526 1 
1652 1524 1527 2 
1653 1525 1528 1 
1654 1525 1530 1 
1655 1525 1526 1 
1656 1526 1410 1 
1657 1528 1409 1 
1658 1529 1528 2 
1659 1535 1539 1 
1660 1535 1537 1 
1661 1535 1538 1 
1662 1535 1536 1 
1663 1536 1540 1 
1664 1536 1549 1 
1665 1536 1550 1 
1666 1537 1547 1 
1667 1537 1548 1 
1668 1537 1541 1 
1669 1538 1542 1 
1670 1539 1543 2 
1671 1540 1546 1 
1672 1540 1544 1 
1673 1541 1540 1 
1674 1541 1594 1 
1675 1544 1598 1 
1676 1545 1544 2 
1677 1551 1564 1 
1678 1551 1565 1 
1679 1551 1553 1 
1680 1552 1551 1 
1681 1552 1556 1 
1682 1552 1554 1 
1683 1552 1555 1 
1684 1553 1557 1 
1685 1554 1562 1 
1686 1554 1563 1 
1687 1554 1557 1 
1688 1557 1561 1 
1689 1558 1556 2 
1690 1559 1557 1 
1691 1560 1559 2 
1692 1566 1573 1 
1693 1566 1574 1 
1694 1566 1575 1 
1695 1567 1566 1 
1696 1567 1571 1 
1697 1567 1572 1 
1698 1568 1567 1 
1699 1568 1788 1 
1700 1569 1568 1 
1701 1570 1568 1 
1702 1576 1583 1 
1703 1576 1584 1 
1704 1576 1585 1 
1705 1577 1576 1 
1706 1577 1581 1 
1707 1577 1582 1 
1708 1578 1577 1 
1709 1578 1580 1 
1710 1579 1578 1 
1711 1586 1591 1 
1712 1586 1592 1 
1713 1587 1586 1 
1714 1587 1589 1 
1715 1587 1590 1 
1716 1587 1588 1 
1717 1594 1593 2 
1718 1594 1595 1 
1719 1595 1598 1 
1720 1596 1595 1 
1721 1596 1599 1 
1722 1596 1606 1 
1723 1596 1607 1 
1724 1597 1595 1 
1725 1597 1600 1 
1726 1597 1604 1 
1727 1597 1605 1 
1728 1599 1600 1 
1729 1599 1601 1 
1730 1599 1603 1 
1731 1600 1586 1 
1732 1601 1307 1 
1733 1602 1601 2 
1734 1608 1332 1 
1735 1608 1613 1 
1736 1608 1614 1 
1737 1608 1609 1 
1738 1610 1609 1 
1739 1611 1609 1 
1740 1612 1609 1 
1741 1615 1620 1 
1742 1615 1621 1 
1743 1615 1619 1 
1744 1616 1405 1 
1745 1616 1615 1 
1746 1616 1617 1 
1747 1616 1618 1 
1748 1622 1623 1 
1749 1622 1624 2 
1750 1623 1409 1 
1751 1625 1623 1 
1752 1626 1623 1 
1753 1627 1635 1 
1754 1627 1636 1 
1755 1628 1555 1 
1756 1628 1627 1 
1757 1628 1633 1 
1758 1628 1634 1 
1759 1629 1627 1 
1760 1629 1631 1 
1761 1629 1632 1 
1762 1629 1630 1 
1763 1637 1644 1 
1764 1637 1645 1 
1765 1637 1646 1 
1766 1638 1637 1 
1767 1638 1642 1 
1768 1638 1643 1 
1769 1639 1454 1 
1770 1639 1638 1 
1771 1639 1640 1 
1772 1639 1641 1 
1773 1647 1660 1 
1774 1647 1661 1 
1775 1647 1648 1 
1776 1647 1649 1 
1777 1648 1659 1 
1778 1649 1653 1 
1779 1649 1654 1 
1780 1650 1648 1 
1781 1651 1648 1 
1782 1651 1655 2 
1783 1652 1649 1 
1784 1652 1650 1 
1785 1652 1657 1 
1786 1652 1658 1 
1787 1653 1739 1 
1788 1654 1578 1 
1789 1656 1653 2 
1790 1663 1737 1 
1791 1663 1662 1 
1792 1664 1662 1 
1793 1664 1665 1 
1794 1664 1666 1 
1795 1667 1664 1 
1796 1668 1663 1 
1797 1669 1663 1 
1798 1670 1662 1 
1799 1671 1662 1 
1800 1672 1438 1 
1801 1672 1680 1 
1802 1672 1681 1 
1803 1673 1672 1 
1804 1673 1678 1 
1805 1673 1679 1 
1806 1674 1673 1 
1807 1674 1676 1 
1808 1674 1677 1 
1809 1675 1674 1 
1810 1682 1651 1 
1811 1683 1682 1 
1812 1683 1684 1 
1813 1683 1685 1 
1814 1683 1686 1 
1815 1684 1695 1 
1816 1684 1696 1 
1817 1684 1687 1 
1818 1685 1693 1 
1819 1685 1694 1 
1820 1685 1688 1 
1821 1686 1650 1 
1822 1686 1689 2 
1823 1687 1690 1 
1824 1687 1692 1 
1825 1688 1687 1 
1826 1691 1690 2 
1827 1697 1598 1 
1828 1697 1700 1 
1829 1697 1701 1 
1830 1697 1698 1 
1831 1698 1858 1 
1832 1699 1698 2 
1833 1702 1715 1 
1834 1702 1704 1 
1835 1702 1705 1 
1836 1703 1524 1 
1837 1703 1702 1 
1838 1703 1706 1 
1839 1704 1707 1 
1840 1704 1713 1 
1841 1704 1714 1 
1842 1705 1519 1 
1843 1705 1708 2 
1844 1706 1711 1 
1845 1706 1712 1 
1846 1707 1706 1 
1847 1707 1709 1 
1848 1707 1710 1 
1849 1709 1333 1 
1850 1709 1716 1 
1851 1717 1730 1 
1852 1717 1731 1 
1853 1717 1718 1 
1854 1717 1719 1 
1855 1718 1721 1 
1856 1718 1722 1 
1857 1719 1453 1 
1858 1719 1723 1 
1859 1720 1718 1 
1860 1720 1728 1 
1861 1720 1729 1 
1862 1720 1723 1 
1863 1721 1856 1 
1864 1722 1857 1 
1865 1722 1724 2 
1866 1723 1725 1 
1867 1723 1727 1 
1868 1725 1454 1 
1869 1725 1726 2 
1870 1732 1733 1 
1871 1732 1734 2 
1872 1733 1735 1 
1873 1733 1736 1 
1874 1733 1737 1 
1875 1738 1735 1 
1876 1739 1736 1 
1877 1739 1738 1 
1878 1740 1738 1 
1879 1740 1654 1 
1880 1741 1740 2 
1881 1742 1738 1 
1882 1743 1736 1 
1883 1744 1736 1 
1884 1745 1735 1 
1885 1746 1735 1 
1886 1747 1754 1 
1887 1747 1755 1 
1888 1747 1756 1 
1889 1747 1748 1 
1890 1748 1752 1 
1891 1748 1753 1 
1892 1749 1748 1 
1893 1749 1422 1 
1894 1749 1750 1 
1895 1749 1751 1 
1896 1757 1758 1 
1897 1757 1759 1 
1898 1758 1761 1 
1899 1759 1539 1 
1900 1759 1762 1 
1901 1760 1758 1 
1902 1760 1762 1 
1903 1761 1403 1 
1904 1763 1762 1 
1905 1763 1538 1 
1906 1764 1763 2 
1907 1765 1762 1 
1908 1766 1760 1 
1909 1767 1760 1 
1910 1768 1758 1 
1911 1769 1757 1 
1912 1770 1757 1 
1913 1771 1761 1 
1914 1772 1780 1 
1915 1772 1781 1 
1916 1772 1773 1 
1917 1772 1774 1 
1918 1773 1778 1 
1919 1773 1779 1 
1920 1774 1776 1 
1921 1774 1777 1 
1922 1775 1774 1 
1923 1782 1795 1 
1924 1782 1796 1 
1925 1782 1784 1 
1926 1783 1782 1 
1927 1783 1786 1 
1928 1783 1794 1 
1929 1783 1785 1 
1930 1784 1788 1 
1931 1784 1789 1 
1932 1784 1787 1 
1933 1785 1787 1 
1934 1786 1790 2 
1935 1787 1792 1 
1936 1787 1793 1 
1937 1791 1789 2 
1938 1798 1797 1 
1939 1799 1797 1 
1940 1799 1837 1 
1941 1799 1802 1 
1942 1800 1797 1 
1943 1800 1803 1 
1944 1800 1836 1 
1945 1801 1798 2 
1946 1802 1804 1 
1947 1802 1835 1 
1948 1803 1834 1 
1949 1803 1804 1 
1950 1805 1804 1 
1951 1805 1832 1 
1952 1805 1833 1 
1953 1805 1806 1 
1954 1806 1838 1 
1955 1807 1806 1 
1956 1807 1809 2 
1957 1808 1810 1 
1958 1808 1811 1 
1959 1808 1807 1 
1960 1808 1831 1 
1961 1810 1361 1 
1962 1810 1812 1 
1963 1811 1829 1 
1964 1811 1830 1 
1965 1812 1827 1 
1966 1812 1828 1 
1967 1813 1811 1 
1968 1813 1812 1 
1969 1814 1813 1 
1970 1814 1816 1 
1971 1815 1813 1 
1972 1815 1817 2 
1973 1816 1818 1 
1974 1816 1825 1 
1975 1816 1826 1 
1976 1818 1823 1 
1977 1818 1824 1 
1978 1819 1818 1 
1979 1819 1821 1 
1980 1819 1822 1 
1981 1820 1819 1 
1982 1839 1849 1 
1983 1839 1850 1 
1984 1840 1906 1 
1985 1840 1839 1 
1986 1840 1852 1 
1987 1841 1839 1 
1988 1841 1847 1 
1989 1841 1848 1 
1990 1841 1842 1 
1991 1842 1846 1 
1992 1843 1842 1 
1993 1843 1737 1 
1994 1843 1845 2 
1995 1844 1842 1 
1996 1844 1732 1 
1997 1844 1851 1 
1998 1853 1863 1 
1999 1853 1864 1 
2000 1853 1855 1 
2001 1854 1853 1 
2002 1854 1862 1 
2003 1854 1856 1 
2004 1854 1857 1 
2005 1855 1861 1 
2006 1855 1858 1 
2007 1855 1860 1 
2008 1856 1859 2 
2009 1857 1866 1 
2010 1858 1865 1 
2011 1867 1870 1 
2012 1867 1871 1 
2013 1867 1868 1 
2014 1867 1869 1 
2015 1868 1880 1 
2016 1868 1881 1 
2017 1868 1872 1 
2018 1869 1873 1 
2019 1869 1878 1 
2020 1869 1879 1 
2021 1870 1690 1 
2022 1871 1688 1 
2023 1871 1874 2 
2024 1872 1877 1 
2025 1872 1875 1 
2026 1872 1873 1 
2027 1873 1815 1 
2028 1875 1814 1 
2029 1875 1876 2 
2030 1883 1882 1 
2031 1883 1887 1 
2032 1883 1888 1 
2033 1884 1721 1 
2034 1884 1883 1 
2035 1884 1885 1 
2036 1884 1886 1 
2037 1889 1882 1 
2038 1890 1882 1 
2039 1891 1882 1 
2040 1892 1905 1 
2041 1892 1622 1 
2042 1893 1892 1 
2043 1893 1902 1 
2044 1893 1903 1 
2045 1894 1893 1 
2046 1894 1900 1 
2047 1894 1901 1 
2048 1894 1895 1 
2049 1895 1899 1 
2050 1896 1788 1 
2051 1896 1895 1 
2052 1896 1898 2 
2053 1897 1895 1 
2054 1897 1789 1 
2055 1897 1904 1 
2056 1907 1906 1 
2057 1907 1909 1 
2058 1907 1910 1 
2059 1908 1906 2 
2060 1912 1911 1 
2061 1912 1303 1 
2062 1913 1912 1 
2063 1913 1915 1 
2064 1913 1916 1 
2065 1914 1913 1 
2066 1914 1925 1 
2067 1914 1926 1 
2068 1914 1917 1 
2069 1915 1918 1 
2070 1915 1923 1 
2071 1915 1924 1 
2072 1916 1301 1 
2073 1916 1919 2 
2074 1917 1922 1 
2075 1917 1918 1 
2076 1917 1920 1 
2077 1918 1326 1 
2078 1920 1330 1 
2079 1921 1920 2 
2080 1927 1934 1 
2081 1927 1935 1 
2082 1927 1936 1 
2083 1928 1927 1 
2084 1928 1932 1 
2085 1928 1933 1 
2086 1929 2049 1 
2087 1929 1928 1 
2088 1930 1929 1 
2089 1931 1929 1 
2090 1937 1950 1 
2091 1937 1951 1 
2092 1938 1937 1 
2093 1938 1940 1 
2094 1938 1941 1 
2095 1938 1942 1 
2096 1939 2436 1 
2097 1939 1937 1 
2098 1939 1943 1 
2099 1940 1949 1 
2100 1940 1943 1 
2101 1940 1948 1 
2102 1941 2330 1 
2103 1941 1944 2 
2104 1942 2331 1 
2105 1942 2423 1 
2106 1945 1943 1 
2107 1945 2435 1 
2108 1946 1945 2 
2109 1947 1943 1 
2110 1952 1958 1 
2111 1953 1952 1 
2112 1953 2201 1 
2113 1954 1953 1 
2114 1955 1953 1 
2115 1956 1952 1 
2116 1957 1952 1 
2117 1959 1961 2 
2118 1959 1960 1 
2119 1960 2412 1 
2120 1962 1960 1 
2121 1963 1960 1 
2122 1964 1977 1 
2123 1964 1978 1 
2124 1965 1964 1 
2125 1965 1976 1 
2126 1966 1964 1 
2127 1966 1971 1 
2128 1967 2241 1 
2129 1967 1965 1 
2130 1968 2240 1 
2131 1968 1965 1 
2132 1968 1972 2 
2133 1969 1966 1 
2134 1969 1967 1 
2135 1969 1974 1 
2136 1969 1975 1 
2137 1970 2440 1 
2138 1970 1966 1 
2139 1970 2213 1 
2140 1971 2438 1 
2141 1973 1971 2 
2142 1980 1979 1 
2143 1980 1993 1 
2144 1980 1994 1 
2145 1980 1984 1 
2146 1981 1979 1 
2147 1981 1991 1 
2148 1981 1992 1 
2149 1981 1985 1 
2150 1982 1979 1 
2151 1982 1986 1 
2152 1983 1979 1 
2153 1983 1987 2 
2154 1984 1990 1 
2155 1985 1984 1 
2156 1985 2510 1 
2157 1988 1984 1 
2158 1988 2514 1 
2159 1988 1989 2 
2160 1995 2008 1 
2161 1995 2009 1 
2162 1996 1995 1 
2163 1997 1995 1 
2164 1998 1996 1 
2165 1998 2006 1 
2166 1998 2007 1 
2167 1999 1996 1 
2168 2000 1996 1 
2169 2000 2002 2 
2170 2001 1997 1 
2171 2001 1998 1 
2172 2001 2003 1 
2173 2001 2005 1 
2174 2004 2003 2 
2175 2010 2435 1 
2176 2010 2018 1 
2177 2010 2019 1 
2178 2011 2010 1 
2179 2011 2017 1 
2180 2012 2011 1 
2181 2013 2012 1 
2182 2014 2012 1 
2183 2015 2012 1 
2184 2016 2011 1 
2185 2020 2564 1 
2186 2020 2033 1 
2187 2021 2020 1 
2188 2021 2030 1 
2189 2021 2031 1 
2190 2022 2021 1 
2191 2022 2028 1 
2192 2022 2029 1 
2193 2023 2022 1 
2194 2023 2027 1 
2195 2024 2333 1 
2196 2024 2023 1 
2197 2024 2026 2 
2198 2025 2023 1 
2199 2025 2334 1 
2200 2025 2032 1 
2201 2034 2041 1 
2202 2034 2042 1 
2203 2034 2043 1 
2204 2035 2034 1 
2205 2035 2040 1 
2206 2035 2036 1 
2207 2035 2039 1 
2208 2036 2333 1 
2209 2037 2036 1 
2210 2038 2036 1 
2211 2044 1997 1 
2212 2044 2046 2 
2213 2045 2044 1 
2214 2045 2047 1 
2215 2045 2048 1 
2216 2045 2049 1 
2217 2047 2057 1 
2218 2047 2058 1 
2219 2048 2055 1 
2220 2048 2056 1 
2221 2049 2003 1 
2222 2050 2047 1 
2223 2050 2054 1 
2224 2051 2050 1 
2225 2051 2048 1 
2226 2052 2050 1 
2227 2053 2052 2 
2228 2059 2171 1 
2229 2060 2059 1 
2230 2060 2064 1 
2231 2060 2063 1 
2232 2061 2059 1 
2233 2062 2060 1 
2234 2062 2073 1 
2235 2062 2074 1 
2236 2062 2065 1 
2237 2063 2072 1 
2238 2063 2071 1 
2239 2064 2169 1 
2240 2065 2068 1 
2241 2065 2070 1 
2242 2066 2206 1 
2243 2066 2063 1 
2244 2066 2065 1 
2245 2067 2064 2 
2246 2068 2205 1 
2247 2069 2068 2 
2248 2076 2075 1 
2249 2077 2076 1 
2250 2078 2076 1 
2251 2079 2076 1 
2252 2080 2075 1 
2253 2081 2075 1 
2254 2083 2395 1 
2255 2083 2082 1 
2256 2084 2083 1 
2257 2084 2087 1 
2258 2085 2084 1 
2259 2085 2096 1 
2260 2085 2097 1 
2261 2085 2088 1 
2262 2086 2084 1 
2263 2086 2094 1 
2264 2086 2095 1 
2265 2086 2089 1 
2266 2087 2393 1 
2267 2089 2408 1 
2268 2089 2088 1 
2269 2090 2087 2 
2270 2091 2412 1 
2271 2091 2088 1 
2272 2092 2091 2 
2273 2093 2088 1 
2274 2098 2414 1 
2275 2098 2103 1 
2276 2098 2104 1 
2277 2099 2098 1 
2278 2100 2099 1 
2279 2101 2099 1 
2280 2102 2099 1 
2281 2105 2113 1 
2282 2105 2114 1 
2283 2105 2107 1 
2284 2106 2382 1 
2285 2106 2105 1 
2286 2106 2111 1 
2287 2106 2112 1 
2288 2108 2107 1 
2289 2109 2107 1 
2290 2110 2107 1 
2291 2115 2125 1 
2292 2115 2126 1 
2293 2116 2115 1 
2294 2116 2124 1 
2295 2117 2115 1 
2296 2117 2122 1 
2297 2117 2123 1 
2298 2118 2116 1 
2299 2118 2366 1 
2300 2119 2116 1 
2301 2119 2128 1 
2302 2119 2367 1 
2303 2120 2117 1 
2304 2120 2127 1 
2305 2120 2308 1 
2306 2121 2118 2 
2307 2129 2139 1 
2308 2129 2140 1 
2309 2130 1959 1 
2310 2130 2129 1 
2311 2130 2142 1 
2312 2131 2129 1 
2313 2131 2137 1 
2314 2131 2138 1 
2315 2132 2131 1 
2316 2132 2134 1 
2317 2132 2136 1 
2318 2133 2382 1 
2319 2133 2132 1 
2320 2133 2135 2 
2321 2134 2377 1 
2322 2134 2141 1 
2323 2143 2151 1 
2324 2143 2152 1 
2325 2144 1999 1 
2326 2144 2143 1 
2327 2144 2149 1 
2328 2144 2150 1 
2329 2145 2143 1 
2330 2145 2148 1 
2331 2146 2145 1 
2332 2147 2145 1 
2333 2153 2166 1 
2334 2153 2167 1 
2335 2153 2154 1 
2336 2153 2155 1 
2337 2154 2165 1 
2338 2156 2000 1 
2339 2156 2154 1 
2340 2157 1999 1 
2341 2157 2154 1 
2342 2157 2161 2 
2343 2158 2155 1 
2344 2158 2156 1 
2345 2158 2163 1 
2346 2158 2164 1 
2347 2159 2155 1 
2348 2159 2162 2 
2349 2160 2155 1 
2350 2160 2344 1 
2351 2168 2181 1 
2352 2169 2168 1 
2353 2170 2168 1 
2354 2170 2179 1 
2355 2170 2180 1 
2356 2170 2173 1 
2357 2171 2168 1 
2358 2171 2174 2 
2359 2172 2169 1 
2360 2172 2173 1 
2361 2172 2177 1 
2362 2172 2178 1 
2363 2175 2173 1 
2364 2175 2415 1 
2365 2175 2182 1 
2366 2176 2173 1 
2367 2183 2316 1 
2368 2183 2459 1 
2369 2184 2183 1 
2370 2185 2184 1 
2371 2185 2196 1 
2372 2185 2197 1 
2373 2186 2184 1 
2374 2186 2195 1 
2375 2186 2189 1 
2376 2186 2194 1 
2377 2187 2315 1 
2378 2187 2184 1 
2379 2187 2190 2 
2380 2188 2185 1 
2381 2188 2189 1 
2382 2188 2191 1 
2383 2188 2193 1 
2384 2189 2538 1 
2385 2191 2537 1 
2386 2192 2191 2 
2387 2199 2198 2 
2388 2200 2199 1 
2389 2200 2212 1 
2390 2201 2200 1 
2391 2202 2200 1 
2392 2202 2210 1 
2393 2202 2211 1 
2394 2203 2201 1 
2395 2203 2208 1 
2396 2203 2209 1 
2397 2204 2202 1 
2398 2204 2203 1 
2399 2204 2206 1 
2400 2205 2204 1 
2401 2207 2206 2 
2402 2213 2221 1 
2403 2213 2222 1 
2404 2214 2213 1 
2405 2214 2219 1 
2406 2214 2220 1 
2407 2215 2214 1 
2408 2215 2218 1 
2409 2216 2215 1 
2410 2217 2215 1 
2411 2223 2224 2 
2412 2225 2224 1 
2413 2226 2225 1 
2414 2226 2263 1 
2415 2227 2225 1 
2416 2227 2262 1 
2417 2228 2226 1 
2418 2228 2261 1 
2419 2229 2227 1 
2420 2229 2260 1 
2421 2230 2228 1 
2422 2230 2229 1 
2423 2230 2231 1 
2424 2231 2258 1 
2425 2231 2259 1 
2426 2232 2231 1 
2427 2233 2232 1 
2428 2234 2233 1 
2429 2234 2257 1 
2430 2235 2233 2 
2431 2236 2234 1 
2432 2236 2238 1 
2433 2237 2234 1 
2434 2237 2255 1 
2435 2237 2256 1 
2436 2237 2239 1 
2437 2238 2253 1 
2438 2238 2254 1 
2439 2239 2238 1 
2440 2240 2239 1 
2441 2241 2239 1 
2442 2242 2240 1 
2443 2242 2251 1 
2444 2242 2252 1 
2445 2243 2241 2 
2446 2244 2242 1 
2447 2244 2249 1 
2448 2244 2250 1 
2449 2244 2245 1 
2450 2246 2245 1 
2451 2247 2245 1 
2452 2248 2245 1 
2453 2264 2232 1 
2454 2266 2265 1 
2455 2266 2236 1 
2456 2267 2265 1 
2457 2267 2305 1 
2458 2268 2265 1 
2459 2268 2304 1 
2460 2269 2266 2 
2461 2270 2267 1 
2462 2270 2303 1 
2463 2270 2272 1 
2464 2271 2268 1 
2465 2271 2302 1 
2466 2271 2272 1 
2467 2273 2272 1 
2468 2273 2300 1 
2469 2273 2301 1 
2470 2274 2273 1 
2471 2274 2306 1 
2472 2275 2274 1 
2473 2276 2275 1 
2474 2276 2299 1 
2475 2277 2275 2 
2476 2278 2276 1 
2477 2278 2280 1 
2478 2279 2276 1 
2479 2279 2297 1 
2480 2279 2298 1 
2481 2279 2281 1 
2482 2280 2295 1 
2483 2280 2296 1 
2484 2281 2280 1 
2485 2282 2281 1 
2486 2283 2281 1 
2487 2283 2285 2 
2488 2284 2282 1 
2489 2284 2293 1 
2490 2284 2294 1 
2491 2284 2286 1 
2492 2287 2286 1 
2493 2288 2287 1 
2494 2289 2287 1 
2495 2290 2287 1 
2496 2291 2286 1 
2497 2292 2286 1 
2498 2307 2514 1 
2499 2308 2307 1 
2500 2309 2308 2 
2501 2310 2307 1 
2502 2311 2307 1 
2503 2312 2325 1 
2504 2312 2326 1 
2505 2313 2312 1 
2506 2313 2324 1 
2507 2314 2312 1 
2508 2314 2317 1 
2509 2314 2318 1 
2510 2314 2319 1 
2511 2315 2313 1 
2512 2315 2317 1 
2513 2316 2313 1 
2514 2316 2320 2 
2515 2321 2318 2 
2516 2322 2317 1 
2517 2323 2317 1 
2518 2327 2340 1 
2519 2327 2341 1 
2520 2328 2327 1 
2521 2328 2339 1 
2522 2329 2327 1 
2523 2329 2333 1 
2524 2329 2334 1 
2525 2330 2328 1 
2526 2331 2328 1 
2527 2331 2335 2 
2528 2332 2329 1 
2529 2332 2330 1 
2530 2332 2337 1 
2531 2332 2338 1 
2532 2334 2336 2 
2533 2342 2351 1 
2534 2342 2349 1 
2535 2342 2350 1 
2536 2343 2342 1 
2537 2343 2347 1 
2538 2343 2348 1 
2539 2344 2343 1 
2540 2344 2346 1 
2541 2345 2344 1 
2542 2352 2359 1 
2543 2352 2360 1 
2544 2352 2361 1 
2545 2353 2352 1 
2546 2353 2358 1 
2547 2353 2357 1 
2548 2354 2353 1 
2549 2354 2319 1 
2550 2354 2356 1 
2551 2355 2354 1 
2552 2362 2375 1 
2553 2362 2376 1 
2554 2363 2362 1 
2555 2364 2362 1 
2556 2364 2368 1 
2557 2364 2159 1 
2558 2365 2363 1 
2559 2365 2368 1 
2560 2365 2373 1 
2561 2365 2374 1 
2562 2366 2363 1 
2563 2366 2526 1 
2564 2367 2363 1 
2565 2367 2369 2 
2566 2370 2368 1 
2567 2370 2160 1 
2568 2371 2370 2 
2569 2372 2368 1 
2570 2378 2377 1 
2571 2378 2382 1 
2572 2379 2377 2 
2573 2380 2378 1 
2574 2380 2390 1 
2575 2380 2391 1 
2576 2380 2383 1 
2577 2381 2378 1 
2578 2381 2388 1 
2579 2381 2389 1 
2580 2381 2384 1 
2581 2384 2383 1 
2582 2384 2318 1 
2583 2385 2383 1 
2584 2385 2319 1 
2585 2386 2385 2 
2586 2387 2383 1 
2587 2392 2405 1 
2588 2392 2395 1 
2589 2393 2392 1 
2590 2393 2396 1 
2591 2394 2392 1 
2592 2394 2403 1 
2593 2394 2404 1 
2594 2394 2397 1 
2595 2395 2398 2 
2596 2396 2401 1 
2597 2396 2402 1 
2598 2397 2396 1 
2599 2397 2399 1 
2600 2397 2400 1 
2601 2399 2517 1 
2602 2399 2406 1 
2603 2407 2408 2 
2604 2409 2408 1 
2605 2410 2409 1 
2606 2410 2420 1 
2607 2410 2421 1 
2608 2411 2409 1 
2609 2411 2418 1 
2610 2411 2419 1 
2611 2412 2409 1 
2612 2413 2410 1 
2613 2413 2417 1 
2614 2414 2411 1 
2615 2414 2413 1 
2616 2415 2413 1 
2617 2415 2416 2 
2618 2422 2430 1 
2619 2422 2431 1 
2620 2423 2422 1 
2621 2424 2422 1 
2622 2425 2424 1 
2623 2426 2424 1 
2624 2427 2424 1 
2625 2428 2423 1 
2626 2429 2423 1 
2627 2433 2437 1 
2628 2433 2432 1 
2629 2433 2445 1 
2630 2433 2446 1 
2631 2434 2432 1 
2632 2434 2444 1 
2633 2434 2438 1 
2634 2434 2443 1 
2635 2435 2432 1 
2636 2436 2432 1 
2637 2436 2439 2 
2638 2438 2437 1 
2639 2440 2437 1 
2640 2441 2440 2 
2641 2442 2437 1 
2642 2447 2456 1 
2643 2447 2448 1 
2644 2447 2454 1 
2645 2447 2455 1 
2646 2449 2448 1 
2647 2450 2449 1 
2648 2451 2449 1 
2649 2452 2448 1 
2650 2453 2448 1 
2651 2457 2465 1 
2652 2457 2466 1 
2653 2457 2464 1 
2654 2458 2457 1 
2655 2458 2462 1 
2656 2458 2463 1 
2657 2459 2458 1 
2658 2459 2461 1 
2659 2460 2459 1 
2660 2468 2467 1 
2661 2468 2507 1 
2662 2469 2467 2 
2663 2470 2467 1 
2664 2470 2473 1 
2665 2470 2508 1 
2666 2471 2468 1 
2667 2471 2474 1 
2668 2471 2224 1 
2669 2472 2468 1 
2670 2472 2475 1 
2671 2472 2505 1 
2672 2472 2506 1 
2673 2473 2503 1 
2674 2473 2504 1 
2675 2474 2501 1 
2676 2474 2502 1 
2677 2475 2474 1 
2678 2476 2473 1 
2679 2477 2475 1 
2680 2477 2052 1 
2681 2477 2481 1 
2682 2478 2475 1 
2683 2478 2051 1 
2684 2478 2482 2 
2685 2479 2476 1 
2686 2479 2500 1 
2687 2479 2483 1 
2688 2480 2476 1 
2689 2480 2484 1 
2690 2480 2499 1 
2691 2481 2497 1 
2692 2481 2498 1 
2693 2483 2496 1 
2694 2484 2495 1 
2695 2485 2481 1 
2696 2485 2493 1 
2697 2485 2494 1 
2698 2486 2483 1 
2699 2486 2484 1 
2700 2487 2485 1 
2701 2487 2490 1 
2702 2487 2491 1 
2703 2487 2492 1 
2704 2488 2486 1 
2705 2488 2278 1 
2706 2488 2489 2 
2707 2509 2510 2 
2708 2511 2510 1 
2709 2512 2511 1 
2710 2512 2522 1 
2711 2512 2523 1 
2712 2513 2511 1 
2713 2513 2520 1 
2714 2513 2521 1 
2715 2514 2511 1 
2716 2515 2512 1 
2717 2515 2517 1 
2718 2515 2519 1 
2719 2516 2513 1 
2720 2516 2515 1 
2721 2516 2075 1 
2722 2518 2517 2 
2723 2524 2533 1 
2724 2524 2531 1 
2725 2524 2532 1 
2726 2525 2524 1 
2727 2525 2526 1 
2728 2525 2529 1 
2729 2525 2530 1 
2730 2527 2526 1 
2731 2528 2526 1 
2732 2535 2534 1 
2733 2535 2547 1 
2734 2535 2548 1 
2735 2536 2534 1 
2736 2536 2545 1 
2737 2536 2546 1 
2738 2537 2534 1 
2739 2537 2449 1 
2740 2538 2534 1 
2741 2538 2541 2 
2742 2539 2535 1 
2743 2539 2544 1 
2744 2539 2542 1 
2745 2540 2283 1 
2746 2540 2536 1 
2747 2540 2539 1 
2748 2542 2282 1 
2749 2543 2542 2 
2750 2549 2561 1 
2751 2549 2562 1 
2752 2549 2550 1 
2753 2549 2551 1 
2754 2550 2560 1 
2755 2551 1983 1 
2756 2552 2550 1 
2757 2552 2558 1 
2758 2552 2559 1 
2759 2553 2199 1 
2760 2553 2550 1 
2761 2553 2563 1 
2762 2554 2551 1 
2763 2554 2552 1 
2764 2555 1982 1 
2765 2555 2554 1 
2766 2556 2555 2 
2767 2557 2554 1 
2768 2564 2566 2 
2769 2565 2564 1 
2770 2565 2205 1 
2771 2565 2567 1 
2772 2565 2568 1 
2773 2569 2577 1 
2774 2569 2578 1 
2775 2570 2569 1 
2776 2570 2575 1 
2777 2570 2576 1 
2778 2571 2570 1 
2779 2571 2572 1 
2780 2571 2573 1 
2781 2571 2574 1 
2782 2579 2592 1 
2783 2579 2593 1 
2784 2580 2579 1 
2785 2580 2591 1 
2786 2581 2579 1 
2787 2581 2585 1 
2788 2581 2586 1 
2789 2581 2584 1 
2790 2582 2580 1 
2791 2582 2584 1 
2792 2582 3125 1 
2793 2583 2580 1 
2794 2583 2587 2 
2795 2583 3126 1 
2796 2584 2590 1 
2797 2585 2598 1 
2798 2586 2599 1 
2799 2588 2586 2 
2800 2589 2584 1 
2801 2594 2607 1 
2802 2594 2890 1 
2803 2595 2594 1 
2804 2595 2604 1 
2805 2595 2605 1 
2806 2596 2595 1 
2807 2596 2602 1 
2808 2596 2603 1 
2809 2597 2596 1 
2810 2597 2598 1 
2811 2597 2599 1 
2812 2597 2601 1 
2813 2599 2606 1 
2814 2600 2598 2 
2815 2608 2615 1 
2816 2608 2616 1 
2817 2608 2617 1 
2818 2609 2608 1 
2819 2609 2614 1 
2820 2609 2613 1 
2821 2610 2609 1 
2822 2611 2610 1 
2823 2612 2610 1 
2824 2618 2631 1 
2825 2619 2618 1 
2826 2619 2879 1 
2827 2620 2618 1 
2828 2620 2629 1 
2829 2620 2630 1 
2830 2621 2618 1 
2831 2621 2875 1 
2832 2622 2619 1 
2833 2622 2628 1 
2834 2622 2627 1 
2835 2623 2620 1 
2836 2623 2622 1 
2837 2624 2621 2 
2838 2625 2623 1 
2839 2625 2632 1 
2840 2625 2853 1 
2841 2626 2623 1 
2842 2633 2643 1 
2843 2633 2644 1 
2844 2633 2635 1 
2845 2634 2956 1 
2846 2634 2633 1 
2847 2634 2646 1 
2848 2635 2641 1 
2849 2635 2642 1 
2850 2636 2635 1 
2851 2636 2638 1 
2852 2636 2640 1 
2853 2636 2637 1 
2854 2638 2645 1 
2855 2639 2637 2 
2856 2647 2655 1 
2857 2647 2656 1 
2858 2648 2647 1 
2859 2648 2653 1 
2860 2648 2654 1 
2861 2649 2648 1 
2862 2649 2652 1 
2863 2649 2650 1 
2864 2649 2651 1 
2865 2657 2664 1 
2866 2657 2665 1 
2867 2657 2666 1 
2868 2658 2657 1 
2869 2658 2663 1 
2870 2658 2662 1 
2871 2659 2658 1 
2872 2659 2660 1 
2873 2659 2661 1 
2874 2667 2674 1 
2875 2667 2675 1 
2876 2667 2676 1 
2877 2668 2667 1 
2878 2668 2672 1 
2879 2668 2673 1 
2880 2669 2668 1 
2881 2670 2669 1 
2882 2671 2669 1 
2883 2677 2687 1 
2884 2677 2688 1 
2885 2677 2678 1 
2886 2677 2679 1 
2887 2680 2678 1 
2888 2680 3140 1 
2889 2681 2678 1 
2890 2681 2690 1 
2891 2681 3141 1 
2892 2682 2679 1 
2893 2682 2689 1 
2894 2682 2912 1 
2895 2683 2680 2 
2896 2684 2679 1 
2897 2685 2679 1 
2898 2686 2678 1 
2899 2691 2698 1 
2900 2691 2699 1 
2901 2691 2700 1 
2902 2692 2691 1 
2903 2692 2696 1 
2904 2692 2697 1 
2905 2693 2692 1 
2906 2693 2694 1 
2907 2693 2695 1 
2908 2701 2709 1 
2909 2701 2710 1 
2910 2702 2701 1 
2911 2702 2708 1 
2912 2703 2701 1 
2913 2704 2703 1 
2914 2705 2703 1 
2915 2706 2703 1 
2916 2707 2702 1 
2917 2711 2638 1 
2918 2712 2716 1 
2919 2712 2711 1 
2920 2713 2711 2 
2921 2714 2712 1 
2922 2714 2724 1 
2923 2714 2725 1 
2924 2714 2717 1 
2925 2715 2712 1 
2926 2715 2722 1 
2927 2715 2723 1 
2928 2715 2718 1 
2929 2716 2637 1 
2930 2716 2769 1 
2931 2718 2717 1 
2932 2718 3187 1 
2933 2719 2717 1 
2934 2719 3188 1 
2935 2720 2719 2 
2936 2721 2717 1 
2937 2726 2727 2 
2938 2727 3011 1 
2939 2728 2727 1 
2940 2729 2728 1 
2941 2729 2766 1 
2942 2730 2728 1 
2943 2730 2765 1 
2944 2731 2729 1 
2945 2731 2764 1 
2946 2732 2730 1 
2947 2732 2763 1 
2948 2733 2732 1 
2949 2733 2731 1 
2950 2734 2733 1 
2951 2734 2761 1 
2952 2734 2762 1 
2953 2734 2735 1 
2954 2735 2767 1 
2955 2736 2735 1 
2956 2737 2736 1 
2957 2737 2760 1 
2958 2738 2736 2 
2959 2739 2794 1 
2960 2739 2737 1 
2961 2740 2737 1 
2962 2740 2758 1 
2963 2740 2759 1 
2964 2741 2739 1 
2965 2741 2756 1 
2966 2741 2757 1 
2967 2742 2740 1 
2968 2742 2741 1 
2969 2742 2744 1 
2970 2743 2742 1 
2971 2743 2996 1 
2972 2743 2745 1 
2973 2744 2995 1 
2974 2744 2746 2 
2975 2745 2754 1 
2976 2745 2755 1 
2977 2745 2747 1 
2978 2747 2752 1 
2979 2747 2753 1 
2980 2748 2747 1 
2981 2749 2748 1 
2982 2750 2748 1 
2983 2751 2748 1 
2984 2768 2776 1 
2985 2768 2777 1 
2986 2769 2768 1 
2987 2769 2774 1 
2988 2769 2775 1 
2989 2770 2768 1 
2990 2770 2772 1 
2991 2770 2773 1 
2992 2771 2770 1 
2993 2779 2783 1 
2994 2779 2778 1 
2995 2779 2791 1 
2996 2779 2792 1 
2997 2780 2778 1 
2998 2780 2789 1 
2999 2780 2790 1 
3000 2780 2784 1 
3001 2781 2778 1 
3002 2781 3129 1 
3003 2781 2569 1 
3004 2782 2778 1 
3005 2782 2785 2 
3006 2782 3123 1 
3007 2784 2783 1 
3008 2784 2999 1 
3009 2786 2783 1 
3010 2786 2998 1 
3011 2787 2786 2 
3012 2788 2783 1 
3013 2793 2795 1 
3014 2793 2796 1 
3015 2794 2793 1 
3016 2794 2797 2 
3017 2795 2798 1 
3018 2796 2799 1 
3019 2800 2798 1 
3020 2800 2799 1 
3021 2800 2801 1 
3022 2801 2828 1 
3023 2802 2801 1 
3024 2803 2802 1 
3025 2804 2806 1 
3026 2804 2807 1 
3027 2804 2803 1 
3028 2804 2827 1 
3029 2805 2803 2 
3030 2807 2809 1 
3031 2807 2825 1 
3032 2807 2826 1 
3033 2808 2806 1 
3034 2808 2809 1 
3035 2808 2823 1 
3036 2808 2824 1 
3037 2809 2811 1 
3038 2810 2809 1 
3039 2810 2812 1 
3040 2812 2821 1 
3041 2812 2822 1 
3042 2813 2811 2 
3043 2814 2812 1 
3044 2814 2819 1 
3045 2814 2820 1 
3046 2815 2814 1 
3047 2815 2816 1 
3048 2815 2817 1 
3049 2815 2818 1 
3050 2829 2801 1 
3051 2830 2799 1 
3052 2831 2798 1 
3053 2832 2796 1 
3054 2833 2795 1 
3055 2834 2802 1 
3056 2835 2842 1 
3057 2835 2843 1 
3058 2835 2844 1 
3059 2835 2836 1 
3060 2837 2836 1 
3061 2837 2585 1 
3062 2838 2837 1 
3063 2839 2837 1 
3064 2840 2836 1 
3065 2841 2836 1 
3066 2846 2845 2 
3067 2847 2846 1 
3068 2847 2850 1 
3069 2848 2847 1 
3070 2848 2858 1 
3071 2848 2859 1 
3072 2848 2851 1 
3073 2849 2847 1 
3074 2849 2852 1 
3075 2849 2856 1 
3076 2849 2857 1 
3077 2850 2911 1 
3078 2851 2855 1 
3079 2852 2851 1 
3080 2852 2867 1 
3081 2853 2851 1 
3082 2854 2853 2 
3083 2860 2865 1 
3084 2860 2866 1 
3085 2861 2860 1 
3086 2862 2861 1 
3087 2863 2861 1 
3088 2864 2861 1 
3089 2867 2872 1 
3090 2867 2873 1 
3091 2867 2868 1 
3092 2869 2868 1 
3093 2870 2868 1 
3094 2871 2868 1 
3095 2874 2875 1 
3096 2876 2875 1 
3097 2877 2876 1 
3098 2877 2880 1 
3099 2877 2888 1 
3100 2877 2889 1 
3101 2878 2876 1 
3102 2878 2881 1 
3103 2878 2886 1 
3104 2878 2887 1 
3105 2879 2876 1 
3106 2879 2882 2 
3107 2881 2880 1 
3108 2883 2880 1 
3109 2884 2883 2 
3110 2885 2880 1 
3111 2890 2891 1 
3112 2890 2892 2 
3113 2893 2891 1 
3114 2894 2891 1 
3115 2895 2896 1 
3116 2895 2897 1 
3117 2895 2898 1 
3118 2895 2899 1 
3119 2896 2909 1 
3120 2896 2910 1 
3121 2896 2900 1 
3122 2897 2901 1 
3123 2897 2907 1 
3124 2897 2908 1 
3125 2898 2902 1 
3126 2898 3112 1 
3127 2899 2903 2 
3128 2899 3108 1 
3129 2900 2906 1 
3130 2901 2900 1 
3131 2901 2846 1 
3132 2904 2900 1 
3133 2904 2905 2 
3134 2904 2850 1 
3135 2911 2912 1 
3136 2913 2912 2 
3137 2914 2911 1 
3138 2915 2911 1 
3139 2917 2916 2 
3140 2917 3110 1 
3141 2917 2918 1 
3142 2918 2930 1 
3143 2919 2918 1 
3144 2919 2921 1 
3145 2919 3100 1 
3146 2920 2918 1 
3147 2920 2928 1 
3148 2920 2929 1 
3149 2920 2922 1 
3150 2921 2926 1 
3151 2921 2927 1 
3152 2922 2921 1 
3153 2923 2922 1 
3154 2923 2970 1 
3155 2923 2891 1 
3156 2924 2922 1 
3157 2924 2968 1 
3158 2925 2924 2 
3159 2931 3198 1 
3160 2932 2931 1 
3161 2933 2931 2 
3162 2934 2932 1 
3163 2934 2944 1 
3164 2934 2945 1 
3165 2935 2932 1 
3166 2935 2942 1 
3167 2935 2943 1 
3168 2936 2932 1 
3169 2936 3204 1 
3170 2936 2610 1 
3171 2937 2934 1 
3172 2937 2941 1 
3173 2937 2939 1 
3174 2938 2935 1 
3175 2938 3018 1 
3176 2938 2937 1 
3177 2939 3017 1 
3178 2940 2939 2 
3179 2946 2954 1 
3180 2946 2955 1 
3181 2946 2948 1 
3182 2947 2946 1 
3183 2947 2952 1 
3184 2947 2953 1 
3185 2948 2950 1 
3186 2948 2951 1 
3187 2949 2948 1 
3188 2957 2956 1 
3189 2957 3054 1 
3190 2958 2956 2 
3191 2959 2957 1 
3192 2960 2957 1 
3193 2961 2963 1 
3194 2961 2962 1 
3195 2961 2980 1 
3196 2964 2962 1 
3197 2964 2975 1 
3198 2964 2976 1 
3199 2965 2962 1 
3200 2965 2973 1 
3201 2965 2974 1 
3202 2966 2962 1 
3203 2966 2978 1 
3204 2967 2964 1 
3205 2967 2972 1 
3206 2968 2965 1 
3207 2968 2967 1 
3208 2969 2966 2 
3209 2970 2967 1 
3210 2970 2971 2 
3211 2977 2990 1 
3212 2977 2979 1 
3213 2977 2980 1 
3214 2978 2977 1 
3215 2978 2981 1 
3216 2979 2988 1 
3217 2979 2989 1 
3218 2982 2979 1 
3219 2982 2981 1 
3220 2983 2980 2 
3221 2984 2982 1 
3222 2984 2991 1 
3223 2985 2982 1 
3224 2986 2981 1 
3225 2987 2981 1 
3226 2992 3005 1 
3227 2992 3006 1 
3228 2993 2992 1 
3229 2993 3004 1 
3230 2993 2995 1 
3231 2993 2996 1 
3232 2994 2992 1 
3233 2994 2997 1 
3234 2994 2998 1 
3235 2994 2999 1 
3236 2995 2997 1 
3237 2996 3000 2 
3238 2997 3003 1 
3239 2998 2647 1 
3240 3001 2999 2 
3241 3002 2997 1 
3242 3008 3007 1 
3243 3008 3012 1 
3244 3008 3047 1 
3245 3009 3007 2 
3246 3010 3007 1 
3247 3010 3048 1 
3248 3010 3013 1 
3249 3011 3008 1 
3250 3011 3014 1 
3251 3012 3045 1 
3252 3012 3046 1 
3253 3013 3043 1 
3254 3013 3044 1 
3255 3014 3041 1 
3256 3014 3042 1 
3257 3015 3012 1 
3258 3015 3014 1 
3259 3015 3017 1 
3260 3015 3018 1 
3261 3016 3013 1 
3262 3016 3019 1 
3263 3016 3020 1 
3264 3017 3021 1 
3265 3018 3022 2 
3266 3019 3040 1 
3267 3020 3024 1 
3268 3020 3039 1 
3269 3021 3037 1 
3270 3021 3038 1 
3271 3021 3025 1 
3272 3023 3019 1 
3273 3023 3036 1 
3274 3023 3026 1 
3275 3024 3035 1 
3276 3025 3033 1 
3277 3025 3034 1 
3278 3025 3027 1 
3279 3026 3024 1 
3280 3026 3028 1 
3281 3027 3032 1 
3282 3028 2806 1 
3283 3029 3028 2 
3284 3030 3027 1 
3285 3031 3027 1 
3286 3050 3049 2 
3287 3050 2881 1 
3288 3051 3050 1 
3289 3051 3053 1 
3290 3051 3054 1 
3291 3052 3051 1 
3292 3052 3062 1 
3293 3052 3063 1 
3294 3052 3055 1 
3295 3053 3060 1 
3296 3053 3061 1 
3297 3054 2883 1 
3298 3055 3059 1 
3299 3056 3053 1 
3300 3056 3055 1 
3301 3056 2860 1 
3302 3057 3055 1 
3303 3057 2984 1 
3304 3058 3057 2 
3305 3064 3066 1 
3306 3064 3067 1 
3307 3064 3068 1 
3308 3065 3064 1 
3309 3065 3077 1 
3310 3065 3078 1 
3311 3065 3069 1 
3312 3066 3075 1 
3313 3066 3076 1 
3314 3067 3081 1 
3315 3069 3074 1 
3316 3069 3072 1 
3317 3070 3066 1 
3318 3070 2811 1 
3319 3070 3069 1 
3320 3071 3068 2 
3321 3072 2810 1 
3322 3073 3072 2 
3323 3079 3086 1 
3324 3079 3087 1 
3325 3079 3088 1 
3326 3079 3080 1 
3327 3081 3080 1 
3328 3082 3081 1 
3329 3083 3081 1 
3330 3084 3080 1 
3331 3085 3080 1 
3332 3089 3096 1 
3333 3089 3097 1 
3334 3089 3098 1 
3335 3090 3089 1 
3336 3090 3094 1 
3337 3090 3095 1 
3338 3091 3090 1 
3339 3092 3091 1 
3340 3093 3091 1 
3341 3099 3104 1 
3342 3099 3105 1 
3343 3099 3100 1 
3344 3099 3103 1 
3345 3101 3100 1 
3346 3102 3100 1 
3347 3106 3118 1 
3348 3106 3119 1 
3349 3106 3108 1 
3350 3107 3106 1 
3351 3107 3110 1 
3352 3107 3117 1 
3353 3107 3109 1 
3354 3109 3116 1 
3355 3110 3120 1 
3356 3111 3108 1 
3357 3111 3109 1 
3358 3112 3111 1 
3359 3113 3112 2 
3360 3114 3111 1 
3361 3115 3109 1 
3362 3121 3134 1 
3363 3121 3135 1 
3364 3121 3123 1 
3365 3122 3121 1 
3366 3122 3124 1 
3367 3122 3125 1 
3368 3122 3126 1 
3369 3123 3127 1 
3370 3124 3127 1 
3371 3124 3132 1 
3372 3124 3133 1 
3373 3125 3128 2 
3374 3126 2702 1 
3375 3129 3127 1 
3376 3130 3129 2 
3377 3131 3127 1 
3378 3136 3149 1 
3379 3136 3150 1 
3380 3137 3136 1 
3381 3138 3136 1 
3382 3138 3172 1 
3383 3139 3137 1 
3384 3139 3147 1 
3385 3139 3148 1 
3386 3140 3137 1 
3387 3140 2669 1 
3388 3141 3137 1 
3389 3142 3138 1 
3390 3142 3139 1 
3391 3142 3146 1 
3392 3143 3141 2 
3393 3144 3142 1 
3394 3144 3145 2 
3395 3144 3173 1 
3396 3151 3091 1 
3397 3152 3151 1 
3398 3153 3152 1 
3399 3153 3164 1 
3400 3153 3165 1 
3401 3154 3152 1 
3402 3154 3162 1 
3403 3154 3163 1 
3404 3155 3152 1 
3405 3155 3158 2 
3406 3156 3153 1 
3407 3156 3159 1 
3408 3156 3161 1 
3409 3157 3154 1 
3410 3157 3156 1 
3411 3157 3068 1 
3412 3159 3067 1 
3413 3160 3159 2 
3414 3166 3179 1 
3415 3166 3180 1 
3416 3167 3166 1 
3417 3167 3178 1 
3418 3167 3169 1 
3419 3167 3170 1 
3420 3168 3166 1 
3421 3168 3171 1 
3422 3168 3172 1 
3423 3168 3173 1 
3424 3171 3169 1 
3425 3171 3177 1 
3426 3173 2693 1 
3427 3174 3170 2 
3428 3175 3172 2 
3429 3176 3171 1 
3430 3181 3183 1 
3431 3181 3194 1 
3432 3181 3195 1 
3433 3181 3182 1 
3434 3182 3193 1 
3435 3184 3182 1 
3436 3184 3155 1 
3437 3185 3182 1 
3438 3185 3151 1 
3439 3186 3183 1 
3440 3186 3184 1 
3441 3186 3192 1 
3442 3186 3191 1 
3443 3187 3183 1 
3444 3188 2659 1 
3445 3188 3183 1 
3446 3189 3185 2 
3447 3190 3187 2 
3448 3196 3209 1 
3449 3196 3210 1 
3450 3197 3196 1 
3451 3197 3200 1 
3452 3197 3201 1 
3453 3198 3196 1 
3454 3198 3202 1 
3455 3199 3197 1 
3456 3199 3207 1 
3457 3199 3208 1 
3458 3199 3202 1 
3459 3200 3170 1 
3460 3200 2947 1 
3461 3201 3203 2 
3462 3201 3169 1 
3463 3202 3204 1 
3464 3202 3206 1 
3465 3205 3204 2 
3466 3211 3214 1 
3467 3211 3215 1 
3468 3212 3211 1 
3469 3212 3216 1 
3470 3212 3224 1 
3471 3212 3225 1 
3472 3213 3211 1 
3473 3213 3223 1 
3474 3213 3217 1 
3475 3213 3222 1 
3476 3214 3381 1 
3477 3216 3221 1 
3478 3217 3244 1 
3479 3217 3216 1 
3480 3218 3215 2 
3481 3219 3243 1 
3482 3219 3216 1 
3483 3220 3219 2 
3484 3227 3226 1 
3485 3228 3226 1 
3486 3228 3266 1 
3487 3229 3226 1 
3488 3229 3265 1 
3489 3230 3227 2 
3490 3231 3228 1 
3491 3231 3264 1 
3492 3231 3233 1 
3493 3232 3229 1 
3494 3232 3263 1 
3495 3232 3233 1 
3496 3234 3233 1 
3497 3234 3261 1 
3498 3234 3262 1 
3499 3235 3234 1 
3500 3235 3267 1 
3501 3236 3235 1 
3502 3236 3238 2 
3503 3237 3236 1 
3504 3237 3260 1 
3505 3237 3239 1 
3506 3237 3240 1 
3507 3239 3241 1 
3508 3240 3258 1 
3509 3240 3259 1 
3510 3241 3256 1 
3511 3241 3257 1 
3512 3242 3240 1 
3513 3242 3241 1 
3514 3243 3242 1 
3515 3244 3242 1 
3516 3245 3243 1 
3517 3245 3254 1 
3518 3245 3255 1 
3519 3245 3247 1 
3520 3246 3244 2 
3521 3248 3247 1 
3522 3249 3248 1 
3523 3250 3248 1 
3524 3251 3248 1 
3525 3252 3247 1 
3526 3253 3247 1 
3527 3268 3275 1 
3528 3268 3276 1 
3529 3268 3277 1 
3530 3269 3268 1 
3531 3269 3270 1 
3532 3269 3273 1 
3533 3269 3274 1 
3534 3270 3565 1 
3535 3271 3270 1 
3536 3272 3270 1 
3537 3278 3279 2 
3538 3280 3279 1 
3539 3281 3280 1 
3540 3282 3280 1 
3541 3283 3281 1 
3542 3284 3282 1 
3543 3284 3315 1 
3544 3285 3284 1 
3545 3285 3283 1 
3546 3286 3285 1 
3547 3286 3313 1 
3548 3286 3314 1 
3549 3287 3286 1 
3550 3287 3319 1 
3551 3288 3287 1 
3552 3289 3288 1 
3553 3289 3312 1 
3554 3289 3291 1 
3555 3289 3292 1 
3556 3290 3288 2 
3557 3291 3227 1 
3558 3292 3310 1 
3559 3292 3311 1 
3560 3293 3291 1 
3561 3293 3308 1 
3562 3293 3309 1 
3563 3294 3292 1 
3564 3294 3293 1 
3565 3294 3296 1 
3566 3295 3294 1 
3567 3295 3410 1 
3568 3295 3297 1 
3569 3296 3409 1 
3570 3297 3306 1 
3571 3297 3307 1 
3572 3298 3296 2 
3573 3299 3297 1 
3574 3299 3304 1 
3575 3299 3305 1 
3576 3300 3299 1 
3577 3301 3300 1 
3578 3302 3300 1 
3579 3303 3300 1 
3580 3316 3283 1 
3581 3317 3282 1 
3582 3318 3281 1 
3583 3321 3320 2 
3584 3322 3321 1 
3585 3322 3324 1 
3586 3322 3325 1 
3587 3323 3322 1 
3588 3323 3333 1 
3589 3323 3334 1 
3590 3323 3326 1 
3591 3324 3331 1 
3592 3324 3332 1 
3593 3327 3324 1 
3594 3327 3326 1 
3595 3328 3326 1 
3596 3329 3328 2 
3597 3330 3326 1 
3598 3335 3345 1 
3599 3335 3346 1 
3600 3336 3574 1 
3601 3336 3335 1 
3602 3336 3348 1 
3603 3337 3335 1 
3604 3337 3343 1 
3605 3337 3344 1 
3606 3338 3337 1 
3607 3338 3342 1 
3608 3339 3539 1 
3609 3339 3338 1 
3610 3340 3534 1 
3611 3340 3338 1 
3612 3340 3347 1 
3613 3341 3339 2 
3614 3349 3361 1 
3615 3349 3362 1 
3616 3350 3349 1 
3617 3350 3352 1 
3618 3350 3353 1 
3619 3350 3360 1 
3620 3351 3816 1 
3621 3351 3349 1 
3622 3351 3354 1 
3623 3352 3358 1 
3624 3352 3359 1 
3625 3353 3783 1 
3626 3353 3363 1 
3627 3354 3352 1 
3628 3354 3357 1 
3629 3355 3815 1 
3630 3355 3354 1 
3631 3356 3355 2 
3632 3364 3377 1 
3633 3364 3378 1 
3634 3364 3366 1 
3635 3365 3364 1 
3636 3365 3376 1 
3637 3365 3367 1 
3638 3365 3368 1 
3639 3367 3722 1 
3640 3368 3721 1 
3641 3369 3366 1 
3642 3369 3367 1 
3643 3369 3375 1 
3644 3369 3374 1 
3645 3370 3366 1 
3646 3370 3373 2 
3647 3371 3366 1 
3648 3371 3496 1 
3649 3372 3368 2 
3650 3379 3386 1 
3651 3379 3387 1 
3652 3379 3388 1 
3653 3380 3379 1 
3654 3380 3385 1 
3655 3380 3384 1 
3656 3381 3380 1 
3657 3381 3382 1 
3658 3381 3383 1 
3659 3389 3327 1 
3660 3389 3394 1 
3661 3389 3395 1 
3662 3390 3389 1 
3663 3391 3390 1 
3664 3392 3390 1 
3665 3393 3390 1 
3666 3396 3440 1 
3667 3396 3404 1 
3668 3396 3405 1 
3669 3397 3396 1 
3670 3398 3397 1 
3671 3399 3398 1 
3672 3400 3398 1 
3673 3401 3398 1 
3674 3402 3397 1 
3675 3403 3397 1 
3676 3406 3419 1 
3677 3406 3420 1 
3678 3407 3406 1 
3679 3407 3418 1 
3680 3408 3406 1 
3681 3409 3407 1 
3682 3410 3407 1 
3683 3410 3414 2 
3684 3411 3408 1 
3685 3411 3409 1 
3686 3411 3417 1 
3687 3411 3416 1 
3688 3412 3445 1 
3689 3412 3408 1 
3690 3412 3579 1 
3691 3413 3443 1 
3692 3413 3408 1 
3693 3413 3415 2 
3694 3421 3800 1 
3695 3422 3421 1 
3696 3423 3421 1 
3697 3424 3422 1 
3698 3424 3435 1 
3699 3424 3436 1 
3700 3425 3422 1 
3701 3425 3433 1 
3702 3425 3434 1 
3703 3426 3422 1 
3704 3426 3429 2 
3705 3426 3798 1 
3706 3427 3424 1 
3707 3427 3430 1 
3708 3427 3432 1 
3709 3428 3425 1 
3710 3428 3427 1 
3711 3428 3790 1 
3712 3430 3789 1 
3713 3431 3430 2 
3714 3438 3437 1 
3715 3438 3450 1 
3716 3438 3451 1 
3717 3439 3437 1 
3718 3439 3448 1 
3719 3439 3449 1 
3720 3439 3443 1 
3721 3440 3437 1 
3722 3441 3437 1 
3723 3441 3444 2 
3724 3442 3438 1 
3725 3442 3445 1 
3726 3442 3447 1 
3727 3442 3443 1 
3728 3446 3445 2 
3729 3453 3452 1 
3730 3453 3492 1 
3731 3453 3457 1 
3732 3454 3452 2 
3733 3455 3452 1 
3734 3455 3493 1 
3735 3455 3458 1 
3736 3456 3453 1 
3737 3456 3279 1 
3738 3456 3459 1 
3739 3457 3490 1 
3740 3457 3491 1 
3741 3458 3488 1 
3742 3458 3489 1 
3743 3459 3486 1 
3744 3459 3487 1 
3745 3460 3457 1 
3746 3460 3459 1 
3747 3461 3458 1 
3748 3461 3464 1 
3749 3461 3465 1 
3750 3462 3460 1 
3751 3462 3597 1 
3752 3462 3466 1 
3753 3463 3460 1 
3754 3463 3596 1 
3755 3463 3467 2 
3756 3464 3485 1 
3757 3465 3484 1 
3758 3466 3482 1 
3759 3466 3483 1 
3760 3468 3464 1 
3761 3468 3481 1 
3762 3468 3471 1 
3763 3469 3465 1 
3764 3469 3480 1 
3765 3469 3471 1 
3766 3470 3466 1 
3767 3470 3472 1 
3768 3470 3478 1 
3769 3470 3479 1 
3770 3472 3476 1 
3771 3472 3477 1 
3772 3473 3471 1 
3773 3473 3239 1 
3774 3474 3473 2 
3775 3475 3472 1 
3776 3494 3501 1 
3777 3494 3502 1 
3778 3494 3503 1 
3779 3495 3494 1 
3780 3495 3500 1 
3781 3496 3495 1 
3782 3497 3496 1 
3783 3498 3496 1 
3784 3499 3495 1 
3785 3504 3512 1 
3786 3504 3513 1 
3787 3504 3505 1 
3788 3504 3506 1 
3789 3505 3721 1 
3790 3507 3506 1 
3791 3508 3506 1 
3792 3509 3506 1 
3793 3510 3505 1 
3794 3511 3505 1 
3795 3515 3789 1 
3796 3515 3514 1 
3797 3516 3514 2 
3798 3517 3515 1 
3799 3518 3515 1 
3800 3519 3532 1 
3801 3519 3533 1 
3802 3520 3519 1 
3803 3521 3519 1 
3804 3521 3525 1 
3805 3521 3370 1 
3806 3522 3520 1 
3807 3522 3530 1 
3808 3522 3531 1 
3809 3522 3525 1 
3810 3523 3520 1 
3811 3523 3744 1 
3812 3524 3520 1 
3813 3524 3526 2 
3814 3527 3525 1 
3815 3527 3371 1 
3816 3528 3527 2 
3817 3529 3525 1 
3818 3535 3534 1 
3819 3535 3538 1 
3820 3535 3539 1 
3821 3536 3534 2 
3822 3537 3535 1 
3823 3537 3547 1 
3824 3537 3548 1 
3825 3537 3540 1 
3826 3538 3546 1 
3827 3538 3545 1 
3828 3540 3544 1 
3829 3541 3538 1 
3830 3541 3540 1 
3831 3541 3763 1 
3832 3542 3540 1 
3833 3542 3764 1 
3834 3542 3543 2 
3835 3549 3556 1 
3836 3549 3557 1 
3837 3549 3558 1 
3838 3550 3549 1 
3839 3550 3555 1 
3840 3550 3554 1 
3841 3551 3594 1 
3842 3551 3550 1 
3843 3551 3553 1 
3844 3552 3551 1 
3845 3559 3572 1 
3846 3559 3573 1 
3847 3560 3559 1 
3848 3560 3571 1 
3849 3560 3563 1 
3850 3561 3559 1 
3851 3561 3564 1 
3852 3561 3565 1 
3853 3561 3566 1 
3854 3562 3560 1 
3855 3562 3564 1 
3856 3564 3570 1 
3857 3564 3569 1 
3858 3566 3568 2 
3859 3567 3563 2 
3860 3575 3574 1 
3861 3575 3325 1 
3862 3575 3578 1 
3863 3576 3574 2 
3864 3577 3575 1 
3865 3579 3587 1 
3866 3579 3588 1 
3867 3580 3579 1 
3868 3580 3586 1 
3869 3580 3585 1 
3870 3581 3580 1 
3871 3582 3581 1 
3872 3583 3581 1 
3873 3584 3581 1 
3874 3589 3719 1 
3875 3590 3594 1 
3876 3590 3589 1 
3877 3590 3593 1 
3878 3591 3589 2 
3879 3592 3590 1 
3880 3592 3595 1 
3881 3592 3602 1 
3882 3592 3603 1 
3883 3593 3600 1 
3884 3593 3601 1 
3885 3594 3725 1 
3886 3595 3599 1 
3887 3596 3593 1 
3888 3596 3595 1 
3889 3597 3595 1 
3890 3597 3598 2 
3891 3604 3514 1 
3892 3604 3617 1 
3893 3604 3605 1 
3894 3605 3615 1 
3895 3605 3614 1 
3896 3606 3605 1 
3897 3606 3613 1 
3898 3607 3606 1 
3899 3608 3565 1 
3900 3608 3607 1 
3901 3609 3566 1 
3902 3609 3607 1 
3903 3609 3616 1 
3904 3610 3608 2 
3905 3611 3607 1 
3906 3612 3606 1 
3907 3618 3623 1 
3908 3618 3624 1 
3909 3619 3618 1 
3910 3619 3621 1 
3911 3619 3622 1 
3912 3620 3619 1 
3913 3626 3651 1 
3914 3626 3625 1 
3915 3627 3626 1 
3916 3628 3627 1 
3917 3628 3639 1 
3918 3628 3640 1 
3919 3629 3627 1 
3920 3629 3637 1 
3921 3629 3638 1 
3922 3630 3649 1 
3923 3630 3627 1 
3924 3630 3633 2 
3925 3631 3628 1 
3926 3631 3634 1 
3927 3631 3636 1 
3928 3632 3321 1 
3929 3632 3629 1 
3930 3632 3631 1 
3931 3634 3325 1 
3932 3635 3634 2 
3933 3641 3647 1 
3934 3642 3785 1 
3935 3642 3641 1 
3936 3643 3642 1 
3937 3644 3642 1 
3938 3645 3641 1 
3939 3646 3641 1 
3940 3648 3661 1 
3941 3649 3648 1 
3942 3650 3648 1 
3943 3650 3659 1 
3944 3650 3660 1 
3945 3651 3648 1 
3946 3652 3649 1 
3947 3652 3657 1 
3948 3652 3658 1 
3949 3653 3650 1 
3950 3653 3652 1 
3951 3653 3655 1 
3952 3653 3656 1 
3953 3654 3651 2 
3954 3655 3846 1 
3955 3655 3662 1 
3956 3663 3676 1 
3957 3663 3677 1 
3958 3664 3663 1 
3959 3664 3667 1 
3960 3664 3668 1 
3961 3665 3441 1 
3962 3665 3663 1 
3963 3665 3669 1 
3964 3666 3664 1 
3965 3666 3674 1 
3966 3666 3675 1 
3967 3666 3669 1 
3968 3667 3562 1 
3969 3668 3563 1 
3970 3668 3829 1 
3971 3670 3667 2 
3972 3671 3440 1 
3973 3671 3669 1 
3974 3672 3671 2 
3975 3673 3669 1 
3976 3678 3688 1 
3977 3678 3689 1 
3978 3679 3678 1 
3979 3679 3687 1 
3980 3679 3682 1 
3981 3680 3678 1 
3982 3680 3686 1 
3983 3680 3685 1 
3984 3680 3683 1 
3985 3681 3679 1 
3986 3681 3523 1 
3987 3681 3684 2 
3988 3682 3691 1 
3989 3682 3524 1 
3990 3683 3690 1 
3991 3683 3753 1 
3992 3692 3761 1 
3993 3692 3734 1 
3994 3693 3692 1 
3995 3693 3695 1 
3996 3693 3696 1 
3997 3694 3693 1 
3998 3694 3705 1 
3999 3694 3706 1 
4000 3694 3697 1 
4001 3695 3703 1 
4002 3695 3704 1 
4003 3696 3760 1 
4004 3697 3700 1 
4005 3697 3702 1 
4006 3698 3695 1 
4007 3698 3697 1 
4008 3698 3215 1 
4009 3699 3696 2 
4010 3700 3214 1 
4011 3701 3700 2 
4012 3707 3714 1 
4013 3707 3715 1 
4014 3707 3716 1 
4015 3708 3707 1 
4016 3708 3712 1 
4017 3708 3713 1 
4018 3709 3708 1 
4019 3709 3764 1 
4020 3709 3710 1 
4021 3709 3711 1 
4022 3717 3730 1 
4023 3717 3731 1 
4024 3718 3717 1 
4025 3718 3722 1 
4026 3718 3720 1 
4027 3718 3721 1 
4028 3719 3723 1 
4029 3719 3717 1 
4030 3720 3728 1 
4031 3720 3729 1 
4032 3723 3720 1 
4033 3723 3725 1 
4034 3723 3727 1 
4035 3724 3722 2 
4036 3726 3725 2 
4037 3732 3739 1 
4038 3732 3740 1 
4039 3732 3741 1 
4040 3733 3732 1 
4041 3733 3737 1 
4042 3733 3738 1 
4043 3734 3733 1 
4044 3734 3735 1 
4045 3734 3736 1 
4046 3742 3749 1 
4047 3742 3750 1 
4048 3742 3751 1 
4049 3742 3743 1 
4050 3744 3743 1 
4051 3745 3744 1 
4052 3746 3744 1 
4053 3747 3743 1 
4054 3748 3743 1 
4055 3752 3843 1 
4056 3753 3752 1 
4057 3754 3753 2 
4058 3755 3752 1 
4059 3756 3752 1 
4060 3757 3770 1 
4061 3757 3771 1 
4062 3758 3757 1 
4063 3758 3769 1 
4064 3759 3757 1 
4065 3759 3763 1 
4066 3759 3764 1 
4067 3760 3758 1 
4068 3761 3758 1 
4069 3761 3765 2 
4070 3762 3759 1 
4071 3762 3760 1 
4072 3762 3767 1 
4073 3762 3768 1 
4074 3766 3763 2 
4075 3772 3780 1 
4076 3772 3781 1 
4077 3772 3774 1 
4078 3773 3539 1 
4079 3773 3772 1 
4080 3773 3778 1 
4081 3773 3779 1 
4082 3775 3774 1 
4083 3776 3774 1 
4084 3777 3774 1 
4085 3782 3783 2 
4086 3784 3783 1 
4087 3784 3796 1 
4088 3785 3784 1 
4089 3786 3784 1 
4090 3786 3795 1 
4091 3786 3794 1 
4092 3787 3785 1 
4093 3787 3792 1 
4094 3787 3793 1 
4095 3788 3786 1 
4096 3788 3787 1 
4097 3789 3788 1 
4098 3790 3788 1 
4099 3790 3791 2 
4100 3797 3810 1 
4101 3798 3797 1 
4102 3799 3797 1 
4103 3799 3808 1 
4104 3799 3809 1 
4105 3800 3797 1 
4106 3800 3803 2 
4107 3801 3798 1 
4108 3801 3806 1 
4109 3801 3807 1 
4110 3802 3799 1 
4111 3802 3801 1 
4112 3802 3804 1 
4113 3802 3805 1 
4114 3804 3328 1 
4115 3804 3811 1 
4116 3812 3816 1 
4117 3812 3813 1 
4118 3812 3814 1 
4119 3812 3815 1 
4120 3813 3826 1 
4121 3813 3827 1 
4122 3814 3824 1 
4123 3814 3825 1 
4124 3816 3820 2 
4125 3817 3813 1 
4126 3817 3823 1 
4127 3817 3821 1 
4128 3818 3814 1 
4129 3818 3817 1 
4130 3818 3839 1 
4131 3819 3815 1 
4132 3821 3843 1 
4133 3822 3821 2 
4134 3828 3836 1 
4135 3828 3837 1 
4136 3829 3828 1 
4137 3829 3835 1 
4138 3829 3834 1 
4139 3830 3828 1 
4140 3830 3832 1 
4141 3830 3833 1 
4142 3831 3830 1 
4143 3839 3838 2 
4144 3839 3840 1 
4145 3841 3840 1 
4146 3841 3851 1 
4147 3841 3852 1 
4148 3842 3840 1 
4149 3842 3849 1 
4150 3842 3850 1 
4151 3842 3845 1 
4152 3843 3840 1 
4153 3844 3841 1 
4154 3844 3845 1 
4155 3844 3846 1 
4156 3844 3848 1 
4157 3845 3618 1 
4158 3847 3846 2 
4159 3853 3866 1 
4160 3853 3867 1 
4161 3853 3855 1 
4162 3854 3853 1 
4163 3854 3856 1 
4164 3854 3857 1 
4165 3854 3858 1 
4166 3855 3859 1 
4167 3856 3864 1 
4168 3856 3865 1 
4169 3856 3859 1 
4170 3858 3860 2 
4171 3859 3863 1 
4172 3859 3861 1 
4173 3861 3862 2 
4174 3868 3870 1 
4175 3868 3880 1 
4176 3868 3881 1 
4177 3869 3868 1 
4178 3869 3871 1 
4179 3869 3872 1 
4180 3869 3879 1 
4181 3870 3929 1 
4182 3870 3873 1 
4183 3871 3873 1 
4184 3871 3877 1 
4185 3871 3878 1 
4186 3872 3882 1 
4187 3874 3928 1 
4188 3874 3873 1 
4189 3875 3874 2 
4190 3876 3873 1 
4191 3884 3883 1 
4192 3884 3886 1 
4193 3884 3887 1 
4194 3884 4132 1 
4195 3885 3883 2 
4196 3888 3901 1 
4197 3888 3902 1 
4198 3889 3888 1 
4199 3889 3900 1 
4200 3890 3888 1 
4201 3890 3893 1 
4202 3890 3894 1 
4203 3890 3895 1 
4204 3891 3889 1 
4205 3891 3893 1 
4206 3892 3889 1 
4207 3892 3896 2 
4208 3893 3899 1 
4209 3893 3898 1 
4210 3894 3897 2 
4211 3903 3905 2 
4212 3903 3855 1 
4213 3904 3903 1 
4214 3904 3906 1 
4215 3904 3907 1 
4216 3904 3908 1 
4217 3906 3916 1 
4218 3906 3917 1 
4219 3906 3909 1 
4220 3907 3914 1 
4221 3907 3915 1 
4222 3907 3910 1 
4223 3908 3861 1 
4224 3909 3913 1 
4225 3909 3910 1 
4226 3909 3911 1 
4227 3911 3912 2 
4228 3918 3922 1 
4229 3918 3923 1 
4230 3918 3924 1 
4231 3919 3918 1 
4232 3919 4060 1 
4233 3920 3919 1 
4234 3921 3919 1 
4235 3925 3928 1 
4236 3925 3929 1 
4237 3925 3927 1 
4238 3926 3930 1 
4239 3926 3925 1 
4240 3926 3939 1 
4241 3926 3940 1 
4242 3927 3931 1 
4243 3927 3937 1 
4244 3927 3938 1 
4245 3928 3932 1 
4246 3929 3933 2 
4247 3930 3936 1 
4248 3930 3931 1 
4249 3930 3934 1 
4250 3931 3942 1 
4251 3934 3946 1 
4252 3935 3934 2 
4253 3942 3941 2 
4254 3942 3943 1 
4255 3943 3945 1 
4256 3943 3946 1 
4257 3944 3943 1 
4258 3944 3954 1 
4259 3944 3955 1 
4260 3944 3947 1 
4261 3945 3952 1 
4262 3945 3953 1 
4263 3945 3948 1 
4264 3947 3951 1 
4265 3947 3949 1 
4266 3948 3947 1 
4267 3948 3987 1 
4268 3950 3949 2 
4269 3956 3960 1 
4270 3956 3959 1 
4271 3956 3957 1 
4272 3956 3958 1 
4273 3957 3961 1 
4274 3957 3969 1 
4275 3957 3970 1 
4276 3958 3967 1 
4277 3958 3968 1 
4278 3958 3962 1 
4279 3960 3963 2 
4280 3961 3964 1 
4281 3961 3966 1 
4282 3962 3961 1 
4283 3964 3965 2 
4284 3971 3972 1 
4285 3971 3973 1 
4286 3972 3976 1 
4287 3972 3975 1 
4288 3974 3972 1 
4289 3974 3977 1 
4290 3974 3985 1 
4291 3974 3986 1 
4292 3975 3983 1 
4293 3975 3984 1 
4294 3977 3980 1 
4295 3977 3982 1 
4296 3978 4065 1 
4297 3978 3975 1 
4298 3978 3977 1 
4299 3979 3976 2 
4300 3980 4064 1 
4301 3981 3980 2 
4302 3987 3992 1 
4303 3987 3993 1 
4304 3988 3987 1 
4305 3988 3989 1 
4306 3988 3990 1 
4307 3988 3991 1 
4308 3994 4134 1 
4309 3994 3999 1 
4310 3994 4000 1 
4311 3995 3994 1 
4312 3995 3996 1 
4313 3995 3997 1 
4314 3995 3998 1 
4315 4001 4014 1 
4316 4001 4002 1 
4317 4001 4003 1 
4318 4001 4004 1 
4319 4002 3976 1 
4320 4002 4005 1 
4321 4003 4012 1 
4322 4003 4013 1 
4323 4003 4006 1 
4324 4004 3971 1 
4325 4004 4007 2 
4326 4005 4010 1 
4327 4005 4011 1 
4328 4005 4006 1 
4329 4008 4006 1 
4330 4008 4135 1 
4331 4008 4015 1 
4332 4009 4006 1 
4333 4016 4017 1 
4334 4017 4115 1 
4335 4018 4017 1 
4336 4019 4018 1 
4337 4019 4030 1 
4338 4019 4031 1 
4339 4019 4022 1 
4340 4020 4018 1 
4341 4020 4028 1 
4342 4020 4029 1 
4343 4020 4023 1 
4344 4021 4018 1 
4345 4021 4113 1 
4346 4021 4024 2 
4347 4022 4027 1 
4348 4022 4025 1 
4349 4023 4128 1 
4350 4023 4022 1 
4351 4025 4132 1 
4352 4026 4025 2 
4353 4032 4039 1 
4354 4032 4040 1 
4355 4032 4041 1 
4356 4032 4033 1 
4357 4033 4038 1 
4358 4033 4037 1 
4359 4034 4033 1 
4360 4034 4035 1 
4361 4034 4036 1 
4362 4034 3895 1 
4363 4042 4044 1 
4364 4042 4055 1 
4365 4042 4056 1 
4366 4043 4042 1 
4367 4043 4047 1 
4368 4043 4046 1 
4369 4043 4045 1 
4370 4044 3960 1 
4371 4044 4048 1 
4372 4045 4053 1 
4373 4045 4054 1 
4374 4045 4048 1 
4375 4046 4090 1 
4376 4046 4049 2 
4377 4047 4091 1 
4378 4050 3959 1 
4379 4050 4048 1 
4380 4051 4050 2 
4381 4052 4048 1 
4382 4058 4057 2 
4383 4058 3872 1 
4384 4059 4058 1 
4385 4059 4071 1 
4386 4059 4060 1 
4387 4059 4061 1 
4388 4061 4063 1 
4389 4061 4069 1 
4390 4061 4070 1 
4391 4062 4060 1 
4392 4062 4067 1 
4393 4062 4068 1 
4394 4062 4063 1 
4395 4063 4065 1 
4396 4064 4063 1 
4397 4066 4065 2 
4398 4072 4085 1 
4399 4072 4086 1 
4400 4072 4073 1 
4401 4072 4074 1 
4402 4074 4078 1 
4403 4075 4073 1 
4404 4075 4083 1 
4405 4075 4084 1 
4406 4075 4078 1 
4407 4076 4073 1 
4408 4077 4073 1 
4409 4077 4079 2 
4410 4078 4080 1 
4411 4078 4082 1 
4412 4081 4080 2 
4413 4087 4089 1 
4414 4087 4100 1 
4415 4087 4101 1 
4416 4088 4087 1 
4417 4088 4091 1 
4418 4088 4099 1 
4419 4088 4090 1 
4420 4089 4094 1 
4421 4089 4092 1 
4422 4089 4093 1 
4423 4090 4092 1 
4424 4091 4095 2 
4425 4092 4097 1 
4426 4092 4098 1 
4427 4094 4096 2 
4428 4102 4109 1 
4429 4102 4110 1 
4430 4102 4111 1 
4431 4103 4102 1 
4432 4103 4108 1 
4433 4103 4107 1 
4434 4104 4103 1 
4435 4104 4215 1 
4436 4104 4105 1 
4437 4104 4106 1 
4438 4112 4115 1 
4439 4112 4125 1 
4440 4113 4112 1 
4441 4113 4116 1 
4442 4114 4112 1 
4443 4114 4123 1 
4444 4114 4124 1 
4445 4114 4117 1 
4446 4115 4118 2 
4447 4116 4117 1 
4448 4116 4121 1 
4449 4116 4122 1 
4450 4117 4119 1 
4451 4117 4120 1 
4452 4119 4126 1 
4453 4119 3949 1 
4454 4128 4127 2 
4455 4128 4129 1 
4456 4129 4132 1 
4457 4129 4131 1 
4458 4130 4129 1 
4459 4130 4140 1 
4460 4130 4141 1 
4461 4130 4133 1 
4462 4131 4134 1 
4463 4131 4138 1 
4464 4131 4139 1 
4465 4133 4137 1 
4466 4133 4135 1 
4467 4134 4133 1 
4468 4136 4135 2 
4469 4142 4149 1 
4470 4142 4150 1 
4471 4142 4151 1 
4472 4142 4143 1 
4473 4143 4148 1 
4474 4143 4147 1 
4475 4144 4143 1 
4476 4144 4093 1 
4477 4144 4145 1 
4478 4144 4146 1 
4479 4152 4160 1 
4480 4152 4161 1 
4481 4153 4152 1 
4482 4153 4167 1 
4483 4153 4158 1 
4484 4153 4159 1 
4485 4154 4152 1 
4486 4154 4157 1 
4487 4154 4156 1 
4488 4155 4154 1 
4489 4162 4163 1 
4490 4162 4164 2 
4491 4163 4167 1 
4492 4163 4165 1 
4493 4163 4166 1 
4494 4165 4175 1 
4495 4165 4176 1 
4496 4166 4173 1 
4497 4166 4174 1 
4498 4168 4165 1 
4499 4168 4170 1 
4500 4168 4172 1 
4501 4169 4166 1 
4502 4169 4168 1 
4503 4169 3894 1 
4504 4170 3895 1 
4505 4171 4170 2 
4506 4177 4184 1 
4507 4177 4185 1 
4508 4177 4186 1 
4509 4178 4177 1 
4510 4178 4179 1 
4511 4178 4182 1 
4512 4178 4183 1 
4513 4179 4227 1 
4514 4179 4181 1 
4515 4180 4179 1 
4516 4187 4200 1 
4517 4187 4201 1 
4518 4188 4187 1 
4519 4188 4199 1 
4520 4189 4187 1 
4521 4189 4193 1 
4522 4189 4194 1 
4523 4189 4192 1 
4524 4190 3858 1 
4525 4190 4188 1 
4526 4190 4192 1 
4527 4191 3857 1 
4528 4191 4188 1 
4529 4191 4195 2 
4530 4192 4197 1 
4531 4192 4198 1 
4532 4193 4074 1 
4533 4194 4080 1 
4534 4196 4193 2 
4535 4202 4209 1 
4536 4202 4210 1 
4537 4202 4211 1 
4538 4203 4202 1 
4539 4203 4208 1 
4540 4203 4207 1 
4541 4203 4204 1 
4542 4204 4194 1 
4543 4204 4206 1 
4544 4205 4204 1 
4545 4212 4216 1 
4546 4212 4215 1 
4547 4212 4213 1 
4548 4212 4214 1 
4549 4213 4217 1 
4550 4218 4214 1 
4551 4218 4414 1 
4552 4218 4217 1 
4553 4219 4216 2 
4554 4220 4413 1 
4555 4220 4217 1 
4556 4221 4220 2 
4557 4222 4217 1 
4558 4223 4214 1 
4559 4224 4214 1 
4560 4225 4213 1 
4561 4226 4213 1 
4562 4227 3892 1 
4563 4227 4228 1 
4564 4228 4230 1 
4565 4228 4231 1 
4566 4229 4228 1 
4567 4229 4240 1 
4568 4229 4241 1 
4569 4229 4232 1 
4570 4230 4233 1 
4571 4230 4238 1 
4572 4230 4239 1 
4573 4231 3891 1 
4574 4231 4234 2 
4575 4232 4237 1 
4576 4232 4233 1 
4577 4232 4235 1 
4578 4233 4216 1 
4579 4235 4236 2 
4580 4235 4215 1 
4581 4242 4296 1 
4582 4242 4244 2 
4583 4243 4242 1 
4584 4243 4064 1 
4585 4243 4245 1 
4586 4243 4246 1 
4587 4247 4257 1 
4588 4247 4258 1 
4589 4248 4247 1 
4590 4248 3883 1 
4591 4248 4260 1 
4592 4249 4247 1 
4593 4249 4256 1 
4594 4249 4255 1 
4595 4250 4249 1 
4596 4250 4252 1 
4597 4250 4254 1 
4598 4251 4167 1 
4599 4251 4250 1 
4600 4251 4253 2 
4601 4252 4162 1 
4602 4252 4259 1 
4603 4261 4274 1 
4604 4261 4275 1 
4605 4262 4261 1 
4606 4262 4265 1 
4607 4262 4273 1 
4608 4263 4261 1 
4609 4263 4268 1 
4610 4263 4266 1 
4611 4263 4267 1 
4612 4264 4262 1 
4613 4264 4266 1 
4614 4265 4269 2 
4615 4266 4271 1 
4616 4266 4272 1 
4617 4267 3964 1 
4618 4268 3962 1 
4619 4268 4270 2 
4620 4276 4283 1 
4621 4276 4284 1 
4622 4276 4285 1 
4623 4276 4277 1 
4624 4277 4281 1 
4625 4277 4282 1 
4626 4278 4277 1 
4627 4278 4076 1 
4628 4278 4280 1 
4629 4278 4279 1 
4630 4286 3959 1 
4631 4286 4294 1 
4632 4286 4295 1 
4633 4287 4286 1 
4634 4287 4292 1 
4635 4287 4293 1 
4636 4287 4288 1 
4637 4289 4288 1 
4638 4290 4288 1 
4639 4291 4288 1 
4640 4296 4309 1 
4641 4296 4297 1 
4642 4297 4306 1 
4643 4297 4307 1 
4644 4298 4297 1 
4645 4298 4304 1 
4646 4298 4305 1 
4647 4299 4298 1 
4648 4299 4303 1 
4649 4299 4300 1 
4650 4299 4301 1 
4651 4300 4093 1 
4652 4301 4094 1 
4653 4301 4308 1 
4654 4302 4300 2 
4655 4310 4267 1 
4656 4310 4318 1 
4657 4310 4319 1 
4658 4311 4310 1 
4659 4311 4316 1 
4660 4311 4317 1 
4661 4312 4311 1 
4662 4312 4315 1 
4663 4313 4312 1 
4664 4314 4312 1 
4665 4321 4457 1 
4666 4321 4320 2 
4667 4321 4322 1 
4668 4322 4324 1 
4669 4323 4322 1 
4670 4323 4360 1 
4671 4323 4325 1 
4672 4324 4326 1 
4673 4324 4359 1 
4674 4325 4358 1 
4675 4325 4327 1 
4676 4326 4357 1 
4677 4327 4326 1 
4678 4328 4327 1 
4679 4328 4355 1 
4680 4328 4356 1 
4681 4329 4328 1 
4682 4329 4361 1 
4683 4330 4329 1 
4684 4330 4331 1 
4685 4330 4332 2 
4686 4331 4354 1 
4687 4333 4397 1 
4688 4333 4331 1 
4689 4334 4331 1 
4690 4334 4352 1 
4691 4334 4353 1 
4692 4334 4336 1 
4693 4335 4333 1 
4694 4335 4350 1 
4695 4335 4351 1 
4696 4335 4336 1 
4697 4337 4336 1 
4698 4337 4265 1 
4699 4338 4336 1 
4700 4338 4264 1 
4701 4339 4337 1 
4702 4339 4348 1 
4703 4339 4349 1 
4704 4339 4341 1 
4705 4340 4338 2 
4706 4341 4346 1 
4707 4341 4347 1 
4708 4342 4341 1 
4709 4342 4343 1 
4710 4342 4344 1 
4711 4342 4345 1 
4712 4362 4369 1 
4713 4362 4370 1 
4714 4362 4371 1 
4715 4363 4362 1 
4716 4363 4364 1 
4717 4363 4367 1 
4718 4363 4368 1 
4719 4364 3908 1 
4720 4365 4364 1 
4721 4366 4364 1 
4722 4372 4382 1 
4723 4372 4383 1 
4724 4373 4372 1 
4725 4373 4381 1 
4726 4373 4375 1 
4727 4373 4376 1 
4728 4374 4372 1 
4729 4374 4379 1 
4730 4374 4380 1 
4731 4374 4377 1 
4732 4375 4076 1 
4733 4376 4385 1 
4734 4376 4077 1 
4735 4377 4384 1 
4736 4378 4375 2 
4737 4386 4394 1 
4738 4386 4395 1 
4739 4387 4386 1 
4740 4387 3857 1 
4741 4387 4392 1 
4742 4387 4393 1 
4743 4388 4386 1 
4744 4388 4391 1 
4745 4389 4388 1 
4746 4390 4388 1 
4747 4397 4396 1 
4748 4397 4400 2 
4749 4398 4396 1 
4750 4398 4436 1 
4751 4398 4401 1 
4752 4399 4396 1 
4753 4399 4435 1 
4754 4399 4402 1 
4755 4401 4434 1 
4756 4401 4403 1 
4757 4402 4433 1 
4758 4403 4402 1 
4759 4404 4403 1 
4760 4404 4431 1 
4761 4404 4432 1 
4762 4405 4404 1 
4763 4405 4437 1 
4764 4406 4405 1 
4765 4406 4407 1 
4766 4406 4408 2 
4767 4407 4410 1 
4768 4407 4430 1 
4769 4407 4409 1 
4770 4409 4411 1 
4771 4410 4428 1 
4772 4410 4429 1 
4773 4410 4412 1 
4774 4411 4426 1 
4775 4411 4427 1 
4776 4412 4411 1 
4777 4412 4413 1 
4778 4412 4414 1 
4779 4413 4415 1 
4780 4414 4416 2 
4781 4415 4424 1 
4782 4415 4425 1 
4783 4417 4415 1 
4784 4417 4422 1 
4785 4417 4423 1 
4786 4418 4417 1 
4787 4418 4420 1 
4788 4418 4421 1 
4789 4419 4418 1 
4790 4438 3946 1 
4791 4438 4441 1 
4792 4438 4442 1 
4793 4439 4438 1 
4794 4439 4377 1 
4795 4439 4440 2 
4796 4443 4451 1 
4797 4443 4452 1 
4798 4444 4047 1 
4799 4444 4443 1 
4800 4444 4449 1 
4801 4444 4450 1 
4802 4445 4443 1 
4803 4445 4446 1 
4804 4445 4447 1 
4805 4445 4448 1 
4806 4453 4454 1 
4807 4453 4455 2 
4808 4453 4456 1 
4809 4454 4457 1 
4810 4454 4458 1 
4811 4454 4493 1 
4812 4456 4494 1 
4813 4458 4461 1 
4814 4458 4491 1 
4815 4458 4492 1 
4816 4459 4456 1 
4817 4459 4462 1 
4818 4459 4489 1 
4819 4459 4490 1 
4820 4460 4457 1 
4821 4460 4461 1 
4822 4460 4487 1 
4823 4460 4488 1 
4824 4462 4466 1 
4825 4463 4461 1 
4826 4463 4467 1 
4827 4463 3911 1 
4828 4464 4461 1 
4829 4464 4468 2 
4830 4464 3910 1 
4831 4465 4462 1 
4832 4465 4486 1 
4833 4465 4469 1 
4834 4466 4485 1 
4835 4466 4470 1 
4836 4467 4471 1 
4837 4467 4483 1 
4838 4467 4484 1 
4839 4469 4472 1 
4840 4469 4482 1 
4841 4470 4481 1 
4842 4470 4472 1 
4843 4471 4479 1 
4844 4471 4480 1 
4845 4471 4473 1 
4846 4472 4474 1 
4847 4473 4478 1 
4848 4473 4477 1 
4849 4473 4476 1 
4850 4474 4409 1 
4851 4475 4474 2 
4852 4495 4507 1 
4853 4495 4508 1 
4854 4495 4497 1 
4855 4496 4495 1 
4856 4496 4506 1 
4857 4496 4498 1 
4858 4496 4499 1 
4859 4498 4504 1 
4860 4498 4505 1 
4861 4499 4509 1 
4862 4500 4497 1 
4863 4500 4498 1 
4864 4500 4503 1 
4865 4501 4500 1 
4866 4501 4502 2 
4867 4510 4518 1 
4868 4510 4519 1 
4869 4511 4510 1 
4870 4511 4516 1 
4871 4511 4517 1 
4872 4512 4510 1 
4873 4512 4515 1 
4874 4512 4514 1 
4875 4512 4513 1 
4876 4520 4533 1 
4877 4520 4534 1 
4878 4521 4520 1 
4879 4521 4524 1 
4880 4521 4532 1 
4881 4521 4523 1 
4882 4522 4520 1 
4883 4522 4527 1 
4884 4522 4525 1 
4885 4522 4526 1 
4886 4524 4528 2 
4887 4525 4523 1 
4888 4525 4530 1 
4889 4525 4531 1 
4890 4526 4723 1 
4891 4527 4721 1 
4892 4527 4529 2 
4893 4535 4548 1 
4894 4535 4549 1 
4895 4536 4535 1 
4896 4536 4540 1 
4897 4536 4539 1 
4898 4536 4538 1 
4899 4537 4719 1 
4900 4537 4535 1 
4901 4537 4541 1 
4902 4538 4546 1 
4903 4538 4547 1 
4904 4539 5125 1 
4905 4540 5126 1 
4906 4540 5053 1 
4907 4541 4538 1 
4908 4541 4545 1 
4909 4541 4543 1 
4910 4542 4539 2 
4911 4543 4718 1 
4912 4544 4543 2 
4913 4550 4552 1 
4914 4551 4550 1 
4915 4551 4553 1 
4916 4551 4554 1 
4917 4551 4555 1 
4918 4553 4564 1 
4919 4553 4565 1 
4920 4554 4562 1 
4921 4554 4563 1 
4922 4554 4557 1 
4923 4555 4558 2 
4924 4556 4553 1 
4925 4556 4561 1 
4926 4556 4557 1 
4927 4556 4559 1 
4928 4560 4559 2 
4929 4566 4571 1 
4930 4566 4572 1 
4931 4567 4566 1 
4932 4567 4570 1 
4933 4567 4568 1 
4934 4567 4569 1 
4935 4574 4573 2 
4936 4574 4620 1 
4937 4574 4575 1 
4938 4575 4577 1 
4939 4575 4578 1 
4940 4576 4575 1 
4941 4576 4586 1 
4942 4576 4587 1 
4943 4576 4579 1 
4944 4577 4580 1 
4945 4577 4584 1 
4946 4577 4585 1 
4947 4578 5118 1 
4948 4578 4622 1 
4949 4580 4579 1 
4950 4581 4579 1 
4951 4582 4581 2 
4952 4583 4579 1 
4953 4588 4589 1 
4954 4590 4589 1 
4955 4590 4601 1 
4956 4590 4602 1 
4957 4591 4589 1 
4958 4591 4594 1 
4959 4591 4599 1 
4960 4591 4600 1 
4961 4592 4589 1 
4962 4592 4595 2 
4963 4593 4590 1 
4964 4593 4598 1 
4965 4593 4594 1 
4966 4593 4596 1 
4967 4594 4965 1 
4968 4596 4964 1 
4969 4597 4596 2 
4970 4603 4610 1 
4971 4603 4611 1 
4972 4603 4612 1 
4973 4603 4604 1 
4974 4604 4609 1 
4975 4604 4608 1 
4976 4605 4604 1 
4977 4605 4606 1 
4978 4605 4607 1 
4979 4613 4614 1 
4980 4614 5080 1 
4981 4615 4614 1 
4982 4616 4615 1 
4983 4616 4619 1 
4984 4616 4627 1 
4985 4616 4628 1 
4986 4617 4615 1 
4987 4617 4620 1 
4988 4617 4625 1 
4989 4617 4626 1 
4990 4618 5078 1 
4991 4618 4615 1 
4992 4618 4621 2 
4993 4619 4622 1 
4994 4619 4624 1 
4995 4620 4619 1 
4996 4622 4623 2 
4997 4629 4636 1 
4998 4629 4637 1 
4999 4629 4638 1 
5000 4630 4629 1 
5001 4630 4634 1 
5002 4630 4635 1 
5003 4631 4588 1 
5004 4631 4630 1 
5005 4632 4631 1 
5006 4633 4631 1 
5007 4639 4643 1 
5008 4639 4644 1 
5009 4639 4645 1 
5010 4639 4640 1 
5011 4640 5065 1 
5012 4641 4640 1 
5013 4642 4640 1 
5014 4646 4659 1 
5015 4646 4660 1 
5016 4646 4647 1 
5017 4646 4648 1 
5018 4647 4650 1 
5019 4647 4651 1 
5020 4647 4649 1 
5021 4648 4652 1 
5022 4649 4657 1 
5023 4649 4658 1 
5024 4650 4665 1 
5025 4651 4664 1 
5026 4652 4649 1 
5027 4652 4654 1 
5028 4652 4656 1 
5029 4653 4651 2 
5030 4655 4654 2 
5031 4661 4674 1 
5032 4661 4675 1 
5033 4662 4661 1 
5034 4662 4665 1 
5035 4662 4673 1 
5036 4663 4661 1 
5037 4663 4666 1 
5038 4663 4667 1 
5039 4663 4668 1 
5040 4664 4662 1 
5041 4664 4666 1 
5042 4666 4671 1 
5043 4666 4672 1 
5044 4667 4670 2 
5045 4669 4665 2 
5046 4676 4882 1 
5047 4676 4689 1 
5048 4677 4676 1 
5049 4677 4686 1 
5050 4677 4687 1 
5051 4678 4677 1 
5052 4678 4684 1 
5053 4678 4685 1 
5054 4678 4679 1 
5055 4679 4683 1 
5056 4680 5128 1 
5057 4680 4679 1 
5058 4680 4682 2 
5059 4681 5129 1 
5060 4681 4679 1 
5061 4681 4688 1 
5062 4690 4703 1 
5063 4690 4704 1 
5064 4690 4692 1 
5065 4691 4690 1 
5066 4691 4695 1 
5067 4691 4693 1 
5068 4691 4694 1 
5069 4692 4667 1 
5070 4692 4696 1 
5071 4693 4701 1 
5072 4693 4702 1 
5073 4693 4696 1 
5074 4695 4697 2 
5075 4696 4700 1 
5076 4696 4698 1 
5077 4698 4668 1 
5078 4699 4698 2 
5079 4705 4712 1 
5080 4705 4713 1 
5081 4705 4714 1 
5082 4706 4705 1 
5083 4706 4711 1 
5084 4706 4710 1 
5085 4706 4707 1 
5086 4707 4668 1 
5087 4708 4707 1 
5088 4709 4707 1 
5089 4716 4720 1 
5090 4716 4715 1 
5091 4716 4728 1 
5092 4717 4715 1 
5093 4717 4726 1 
5094 4717 4727 1 
5095 4717 4721 1 
5096 4718 4715 1 
5097 4719 4715 1 
5098 4719 4722 2 
5099 4720 4723 1 
5100 4720 4725 1 
5101 4721 4720 1 
5102 4724 4723 2 
5103 4729 4716 1 
5104 4730 4526 1 
5105 4730 4738 1 
5106 4730 4739 1 
5107 4731 4730 1 
5108 4731 4736 1 
5109 4731 4737 1 
5110 4732 4731 1 
5111 4732 4734 1 
5112 4732 4735 1 
5113 4733 4732 1 
5114 4740 4816 1 
5115 4741 4745 1 
5116 4741 4740 1 
5117 4741 4744 1 
5118 4742 4740 2 
5119 4743 4741 1 
5120 4743 4746 1 
5121 4743 4753 1 
5122 4743 4754 1 
5123 4744 4751 1 
5124 4744 4752 1 
5125 4745 4815 1 
5126 4745 4511 1 
5127 4746 4750 1 
5128 4747 4744 1 
5129 4747 4746 1 
5130 4747 5108 1 
5131 4748 4746 1 
5132 4748 5109 1 
5133 4748 4749 2 
5134 4755 4758 1 
5135 4755 4756 1 
5136 4755 4757 2 
5137 4756 4759 1 
5138 4756 4760 1 
5139 4758 4761 1 
5140 4759 4762 1 
5141 4760 4763 1 
5142 4761 4764 1 
5143 4763 4762 1 
5144 4763 4765 1 
5145 4763 4766 1 
5146 4764 4767 1 
5147 4764 4768 1 
5148 4765 4769 1 
5149 4766 4770 2 
5150 4767 4771 1 
5151 4768 4772 1 
5152 4769 4773 1 
5153 4774 4771 1 
5154 4774 4772 1 
5155 4774 4776 1 
5156 4775 4773 1 
5157 4775 4778 1 
5158 4777 4776 2 
5159 4779 4775 1 
5160 4780 4775 1 
5161 4781 4773 1 
5162 4782 4773 1 
5163 4783 4772 1 
5164 4784 4771 1 
5165 4785 4769 1 
5166 4786 4769 1 
5167 4787 4768 1 
5168 4788 4767 1 
5169 4789 4762 1 
5170 4790 4762 1 
5171 4791 4761 1 
5172 4792 4761 1 
5173 4793 4760 1 
5174 4794 4760 1 
5175 4795 4756 1 
5176 4796 4758 1 
5177 4797 4807 1 
5178 4797 4808 1 
5179 4797 4798 1 
5180 4797 4799 1 
5181 4798 4806 1 
5182 4799 4804 1 
5183 4799 4805 1 
5184 4800 4798 1 
5185 4800 4694 1 
5186 4800 4803 2 
5187 4801 4798 1 
5188 4801 4810 1 
5189 4801 4695 1 
5190 4802 4799 1 
5191 4802 4809 1 
5192 4811 4821 1 
5193 4811 4822 1 
5194 4812 5117 1 
5195 4812 4811 1 
5196 4812 4824 1 
5197 4813 4811 1 
5198 4813 4819 1 
5199 4813 4820 1 
5200 4813 4814 1 
5201 4814 4818 1 
5202 4815 4814 1 
5203 4815 4817 2 
5204 4816 4814 1 
5205 4816 4823 1 
5206 4826 4825 2 
5207 4826 4827 1 
5208 4828 4827 1 
5209 4828 4838 1 
5210 4828 4839 1 
5211 4829 4827 1 
5212 4829 4836 1 
5213 4829 4837 1 
5214 4829 4832 1 
5215 4830 4827 1 
5216 4831 4828 1 
5217 4831 4835 1 
5218 4831 4833 1 
5219 4831 4832 1 
5220 4832 4566 1 
5221 4833 5084 1 
5222 4834 4833 2 
5223 4841 4759 1 
5224 4841 4840 2 
5225 4841 4842 1 
5226 4843 4842 1 
5227 4843 4880 1 
5228 4844 4842 1 
5229 4844 4879 1 
5230 4845 4843 1 
5231 4845 4878 1 
5232 4845 4847 1 
5233 4846 4844 1 
5234 4846 4877 1 
5235 4846 4847 1 
5236 4848 4847 1 
5237 4848 4875 1 
5238 4848 4876 1 
5239 4849 4848 1 
5240 4849 4881 1 
5241 4849 4850 1 
5242 4850 4852 2 
5243 4851 4850 1 
5244 4851 4874 1 
5245 4851 4853 1 
5246 4851 4854 1 
5247 4853 4895 1 
5248 4853 4855 1 
5249 4854 4872 1 
5250 4854 4873 1 
5251 4855 4870 1 
5252 4855 4871 1 
5253 4856 4854 1 
5254 4856 4855 1 
5255 4857 4856 1 
5256 4857 4524 1 
5257 4857 4859 1 
5258 4858 4856 1 
5259 4858 4523 1 
5260 4858 4860 2 
5261 4859 4868 1 
5262 4859 4869 1 
5263 4859 4861 1 
5264 4861 4866 1 
5265 4861 4867 1 
5266 4862 4861 1 
5267 4862 4863 1 
5268 4862 4864 1 
5269 4862 4865 1 
5270 4883 5069 1 
5271 4883 4882 1 
5272 4883 4886 1 
5273 4884 4882 2 
5274 4885 4883 1 
5275 4887 4580 1 
5276 4887 4892 1 
5277 4887 4893 1 
5278 4887 4888 1 
5279 4888 4890 1 
5280 4888 4891 1 
5281 4889 4888 1 
5282 4894 4897 1 
5283 4895 4894 1 
5284 4895 4898 2 
5285 4896 4894 1 
5286 4896 4899 1 
5287 4896 4934 1 
5288 4897 4933 1 
5289 4899 4932 1 
5290 4900 4897 1 
5291 4900 4931 1 
5292 4901 4900 1 
5293 4901 4899 1 
5294 4901 4902 1 
5295 4902 4929 1 
5296 4902 4930 1 
5297 4903 4902 1 
5298 4903 4904 1 
5299 4903 4935 1 
5300 4905 4904 1 
5301 4905 4928 1 
5302 4906 4904 2 
5303 4907 4776 1 
5304 4907 4905 1 
5305 4907 4909 1 
5306 4908 4905 1 
5307 4908 4910 1 
5308 4908 4926 1 
5309 4908 4927 1 
5310 4909 4924 1 
5311 4909 4925 1 
5312 4910 4909 1 
5313 4910 4912 1 
5314 4911 4910 1 
5315 4911 4913 1 
5316 4913 4922 1 
5317 4913 4923 1 
5318 4914 4912 2 
5319 4915 4913 1 
5320 4915 4920 1 
5321 4915 4921 1 
5322 4916 4915 1 
5323 4916 4918 1 
5324 4916 4919 1 
5325 4916 4917 1 
5326 4936 4648 1 
5327 4937 4941 1 
5328 4937 4936 1 
5329 4937 4939 1 
5330 4937 4940 1 
5331 4938 4936 2 
5332 4939 4942 1 
5333 4939 4949 1 
5334 4939 4950 1 
5335 4940 4947 1 
5336 4940 4948 1 
5337 4940 4943 1 
5338 4941 4654 1 
5339 4941 5034 1 
5340 4942 4946 1 
5341 4943 4766 1 
5342 4943 4942 1 
5343 4944 4942 1 
5344 4944 4765 1 
5345 4944 4945 2 
5346 4951 4958 1 
5347 4951 4959 1 
5348 4951 4960 1 
5349 4952 4951 1 
5350 4952 4957 1 
5351 4952 4956 1 
5352 4953 4964 1 
5353 4953 4952 1 
5354 4953 4954 1 
5355 4953 4955 1 
5356 4961 4964 1 
5357 4961 4965 1 
5358 4961 4963 1 
5359 4962 4961 1 
5360 4962 4974 1 
5361 4962 4975 1 
5362 4962 4966 1 
5363 4963 4972 1 
5364 4963 4973 1 
5365 4963 4967 1 
5366 4965 4968 2 
5367 4966 4971 1 
5368 4966 4969 1 
5369 4967 4966 1 
5370 4967 4912 1 
5371 4969 4911 1 
5372 4970 4969 2 
5373 4976 4830 1 
5374 4976 4979 1 
5375 4976 4980 1 
5376 4977 4802 1 
5377 4977 4976 1 
5378 4978 4977 2 
5379 4982 4650 1 
5380 4982 4981 1 
5381 4982 4987 1 
5382 4982 4988 1 
5383 4983 4981 1 
5384 4983 4984 1 
5385 4983 4985 1 
5386 4983 4986 1 
5387 4989 4981 1 
5388 4990 4981 1 
5389 4991 4994 1 
5390 4991 5004 1 
5391 4991 4992 1 
5392 4991 4993 1 
5393 4992 4555 1 
5394 4992 4995 1 
5395 4993 5002 1 
5396 4993 5003 1 
5397 4993 4996 1 
5398 4994 4550 1 
5399 4994 4997 2 
5400 4995 5000 1 
5401 4995 5001 1 
5402 4995 4996 1 
5403 4998 4581 1 
5404 4998 4996 1 
5405 4998 5005 1 
5406 4999 4996 1 
5407 5006 4718 1 
5408 5006 5014 1 
5409 5006 5015 1 
5410 5007 5006 1 
5411 5007 5012 1 
5412 5007 5013 1 
5413 5007 5008 1 
5414 5008 5010 1 
5415 5008 5011 1 
5416 5009 5008 1 
5417 5016 5020 1 
5418 5017 5021 1 
5419 5017 5016 1 
5420 5017 5030 1 
5421 5017 5031 1 
5422 5018 5016 1 
5423 5018 5028 1 
5424 5018 5029 1 
5425 5018 5022 1 
5426 5019 5016 1 
5427 5019 5023 1 
5428 5019 4501 1 
5429 5020 5024 2 
5430 5020 4497 1 
5431 5021 5025 1 
5432 5021 5027 1 
5433 5022 5021 1 
5434 5022 4826 1 
5435 5025 4830 1 
5436 5026 5025 2 
5437 5032 5039 1 
5438 5032 5040 1 
5439 5032 5041 1 
5440 5033 5032 1 
5441 5033 5037 1 
5442 5033 5038 1 
5443 5034 5033 1 
5444 5034 5036 1 
5445 5035 5034 1 
5446 5042 5049 1 
5447 5042 5050 1 
5448 5042 5051 1 
5449 5042 5043 1 
5450 5043 5047 1 
5451 5043 5048 1 
5452 5044 5043 1 
5453 5044 5128 1 
5454 5044 5045 1 
5455 5044 5046 1 
5456 5052 5060 1 
5457 5052 5061 1 
5458 5052 5053 1 
5459 5052 5054 1 
5460 5053 5058 1 
5461 5053 5059 1 
5462 5054 5055 1 
5463 5054 5056 1 
5464 5054 5057 1 
5465 5063 5062 2 
5466 5063 4499 1 
5467 5064 5063 1 
5468 5064 5076 1 
5469 5064 5066 1 
5470 5064 5065 1 
5471 5065 5067 1 
5472 5066 5074 1 
5473 5066 5075 1 
5474 5066 5068 1 
5475 5067 5072 1 
5476 5067 5073 1 
5477 5068 5067 1 
5478 5068 5069 1 
5479 5068 5070 1 
5480 5069 4559 1 
5481 5070 4557 1 
5482 5071 5070 2 
5483 5077 5090 1 
5484 5077 5079 1 
5485 5077 5080 1 
5486 5078 5077 1 
5487 5078 5081 1 
5488 5079 5088 1 
5489 5079 5089 1 
5490 5079 5082 1 
5491 5080 5083 2 
5492 5081 5086 1 
5493 5081 5087 1 
5494 5081 5082 1 
5495 5082 5085 1 
5496 5084 5082 1 
5497 5084 5091 1 
5498 5092 5099 1 
5499 5092 5100 1 
5500 5092 5101 1 
5501 5093 5092 1 
5502 5093 5097 1 
5503 5093 5098 1 
5504 5094 4694 1 
5505 5094 5093 1 
5506 5094 5096 1 
5507 5095 5094 1 
5508 5102 5115 1 
5509 5102 5116 1 
5510 5102 5104 1 
5511 5103 5102 1 
5512 5103 5114 1 
5513 5103 5105 1 
5514 5103 5106 1 
5515 5104 5109 1 
5516 5105 4592 1 
5517 5106 5110 2 
5518 5106 4588 1 
5519 5107 5104 1 
5520 5107 5105 1 
5521 5107 5112 1 
5522 5107 5113 1 
5523 5108 5104 1 
5524 5108 5111 2 
5525 5109 4605 1 
5526 5117 5119 2 
5527 5118 5117 1 
5528 5118 5121 1 
5529 5118 5120 1 
5530 5122 5135 1 
5531 5122 5136 1 
5532 5122 5123 1 
5533 5122 5124 1 
5534 5123 5134 1 
5535 5124 5128 1 
5536 5124 5129 1 
5537 5125 5123 1 
5538 5126 5123 1 
5539 5126 5130 2 
5540 5127 5124 1 
5541 5127 5125 1 
5542 5127 5132 1 
5543 5127 5133 1 
5544 5129 5131 2 
5545 5137 5143 1 
5546 5138 5137 1 
5547 5138 5723 1 
5548 5139 5138 1 
5549 5140 5138 1 
5550 5141 5137 1 
5551 5142 5137 1 
5552 5144 5147 1 
5553 5144 5148 1 
5554 5145 5144 1 
5555 5145 5149 1 
5556 5145 5157 1 
5557 5145 5158 1 
5558 5146 5144 1 
5559 5146 5150 1 
5560 5146 5155 1 
5561 5146 5156 1 
5562 5147 5288 1 
5563 5150 5218 1 
5564 5150 5149 1 
5565 5151 5148 2 
5566 5152 5217 1 
5567 5152 5149 1 
5568 5153 5152 2 
5569 5154 5149 1 
5570 5159 5163 1 
5571 5160 5159 1 
5572 5160 5172 1 
5573 5160 5173 1 
5574 5160 5164 1 
5575 5161 5159 1 
5576 5161 5170 1 
5577 5161 5171 1 
5578 5161 5165 1 
5579 5162 5159 1 
5580 5165 5164 1 
5581 5166 5163 2 
5582 5167 5164 1 
5583 5168 5167 2 
5584 5169 5164 1 
5585 5174 5181 1 
5586 5174 5182 1 
5587 5174 5183 1 
5588 5174 5175 1 
5589 5176 5175 1 
5590 5177 5176 1 
5591 5178 5176 1 
5592 5179 5175 1 
5593 5180 5175 1 
5594 5184 5753 1 
5595 5184 5185 1 
5596 5184 5186 1 
5597 5187 5185 1 
5598 5187 5198 1 
5599 5187 5199 1 
5600 5188 5185 1 
5601 5188 5196 1 
5602 5188 5197 1 
5603 5189 5185 1 
5604 5189 5751 1 
5605 5190 5187 1 
5606 5190 5193 1 
5607 5190 5195 1 
5608 5191 5188 1 
5609 5191 5190 1 
5610 5191 5728 1 
5611 5192 5189 2 
5612 5193 5727 1 
5613 5194 5193 2 
5614 5201 5200 1 
5615 5201 5501 1 
5616 5201 5204 2 
5617 5202 5200 1 
5618 5202 5240 1 
5619 5202 5205 1 
5620 5203 5200 1 
5621 5203 5206 1 
5622 5203 5239 1 
5623 5205 5238 1 
5624 5206 5237 1 
5625 5207 5205 1 
5626 5207 5206 1 
5627 5208 5207 1 
5628 5208 5235 1 
5629 5208 5236 1 
5630 5209 5208 1 
5631 5209 5241 1 
5632 5210 5209 1 
5633 5210 5211 1 
5634 5210 5212 2 
5635 5211 5234 1 
5636 5213 5211 1 
5637 5214 5211 1 
5638 5214 5216 1 
5639 5214 5232 1 
5640 5214 5233 1 
5641 5215 5213 1 
5642 5215 5230 1 
5643 5215 5231 1 
5644 5215 5216 1 
5645 5217 5216 1 
5646 5218 5216 1 
5647 5219 5217 1 
5648 5219 5228 1 
5649 5219 5229 1 
5650 5220 5218 2 
5651 5221 5219 1 
5652 5221 5226 1 
5653 5221 5227 1 
5654 5222 5221 1 
5655 5222 5224 1 
5656 5222 5225 1 
5657 5223 5222 1 
5658 5242 5252 1 
5659 5242 5253 1 
5660 5243 5242 1 
5661 5243 5251 1 
5662 5244 5242 1 
5663 5244 5249 1 
5664 5244 5250 1 
5665 5245 5243 1 
5666 5245 5653 1 
5667 5246 5243 1 
5668 5246 5654 1 
5669 5246 5255 1 
5670 5247 5244 1 
5671 5247 5254 1 
5672 5247 5469 1 
5673 5248 5245 2 
5674 5257 5256 2 
5675 5257 5258 1 
5676 5259 5258 1 
5677 5259 5269 1 
5678 5259 5270 1 
5679 5260 5258 1 
5680 5260 5267 1 
5681 5260 5268 1 
5682 5261 5258 1 
5683 5262 5259 1 
5684 5262 5266 1 
5685 5263 5260 1 
5686 5263 5262 1 
5687 5263 5580 1 
5688 5264 5262 1 
5689 5265 5264 2 
5690 5272 5271 1 
5691 5272 5740 1 
5692 5273 5271 2 
5693 5274 5272 1 
5694 5275 5272 1 
5695 5276 5162 1 
5696 5276 5284 1 
5697 5276 5285 1 
5698 5276 5277 1 
5699 5278 5277 1 
5700 5279 5278 1 
5701 5280 5278 1 
5702 5281 5278 1 
5703 5282 5277 1 
5704 5283 5277 1 
5705 5286 5293 1 
5706 5286 5294 1 
5707 5286 5295 1 
5708 5287 5286 1 
5709 5287 5291 1 
5710 5287 5292 1 
5711 5288 5287 1 
5712 5288 5289 1 
5713 5288 5290 1 
5714 5297 5296 1 
5715 5297 5336 1 
5716 5297 5301 1 
5717 5298 5296 2 
5718 5299 5296 1 
5719 5299 5337 1 
5720 5299 5302 1 
5721 5300 5297 1 
5722 5300 5489 1 
5723 5300 5303 1 
5724 5301 5334 1 
5725 5301 5335 1 
5726 5302 5332 1 
5727 5302 5333 1 
5728 5303 5330 1 
5729 5303 5331 1 
5730 5304 5301 1 
5731 5304 5303 1 
5732 5305 5302 1 
5733 5305 5309 1 
5734 5306 5304 1 
5735 5306 5461 1 
5736 5306 5310 1 
5737 5307 5304 1 
5738 5307 5460 1 
5739 5307 5311 2 
5740 5308 5305 1 
5741 5308 5329 1 
5742 5308 5312 1 
5743 5309 5328 1 
5744 5310 5326 1 
5745 5310 5327 1 
5746 5312 5325 1 
5747 5313 5309 1 
5748 5313 5324 1 
5749 5314 5310 1 
5750 5314 5322 1 
5751 5314 5323 1 
5752 5315 5312 1 
5753 5315 5313 1 
5754 5315 5317 1 
5755 5316 5314 1 
5756 5316 5319 1 
5757 5316 5320 1 
5758 5316 5321 1 
5759 5317 5213 1 
5760 5318 5317 2 
5761 5338 5346 1 
5762 5338 5347 1 
5763 5339 5338 1 
5764 5339 5344 1 
5765 5339 5345 1 
5766 5340 5338 1 
5767 5340 5343 1 
5768 5340 5341 1 
5769 5340 5342 1 
5770 5348 5356 1 
5771 5348 5357 1 
5772 5349 5348 1 
5773 5350 5349 1 
5774 5350 5671 1 
5775 5351 5350 1 
5776 5352 5350 1 
5777 5353 5349 1 
5778 5354 5349 1 
5779 5355 5348 1 
5780 5358 5366 1 
5781 5358 5367 1 
5782 5358 5365 1 
5783 5359 5358 1 
5784 5359 5363 1 
5785 5359 5364 1 
5786 5360 5359 1 
5787 5360 5404 1 
5788 5360 5361 1 
5789 5360 5362 1 
5790 5368 5381 1 
5791 5368 5382 1 
5792 5369 5368 1 
5793 5370 5163 1 
5794 5370 5368 1 
5795 5371 5369 1 
5796 5371 5379 1 
5797 5371 5380 1 
5798 5372 5369 1 
5799 5372 5401 1 
5800 5373 5369 1 
5801 5373 5402 1 
5802 5373 5339 1 
5803 5374 5370 1 
5804 5374 5371 1 
5805 5374 5376 1 
5806 5374 5378 1 
5807 5375 5372 2 
5808 5376 5162 1 
5809 5377 5376 2 
5810 5383 5668 1 
5811 5383 5415 1 
5812 5384 5383 1 
5813 5384 5387 1 
5814 5384 5385 1 
5815 5384 5386 1 
5816 5385 5396 1 
5817 5385 5397 1 
5818 5386 5394 1 
5819 5386 5395 1 
5820 5387 5667 1 
5821 5388 5385 1 
5822 5388 5393 1 
5823 5389 5386 1 
5824 5389 5388 1 
5825 5389 5148 1 
5826 5390 5387 2 
5827 5391 5388 1 
5828 5391 5147 1 
5829 5392 5391 2 
5830 5398 5411 1 
5831 5398 5412 1 
5832 5399 5398 1 
5833 5399 5410 1 
5834 5400 5398 1 
5835 5400 5405 1 
5836 5401 5399 1 
5837 5402 5399 1 
5838 5402 5406 2 
5839 5403 5400 1 
5840 5403 5401 1 
5841 5403 5408 1 
5842 5403 5409 1 
5843 5404 5400 1 
5844 5407 5405 2 
5845 5413 5420 1 
5846 5413 5421 1 
5847 5413 5422 1 
5848 5414 5413 1 
5849 5414 5415 1 
5850 5414 5418 1 
5851 5414 5419 1 
5852 5416 5415 1 
5853 5417 5415 1 
5854 5424 5423 1 
5855 5424 5727 1 
5856 5424 5427 1 
5857 5425 5423 2 
5858 5426 5424 1 
5859 5428 5441 1 
5860 5428 5442 1 
5861 5429 5428 1 
5862 5429 5433 1 
5863 5429 5432 1 
5864 5429 5431 1 
5865 5430 5434 1 
5866 5430 5428 1 
5867 5431 5439 1 
5868 5431 5440 1 
5869 5434 5431 1 
5870 5434 5438 1 
5871 5435 5433 2 
5872 5436 5434 1 
5873 5437 5436 2 
5874 5443 5450 1 
5875 5443 5451 1 
5876 5443 5452 1 
5877 5444 5443 1 
5878 5444 5448 1 
5879 5444 5449 1 
5880 5445 5458 1 
5881 5445 5444 1 
5882 5445 5447 1 
5883 5446 5445 1 
5884 5453 5430 1 
5885 5453 5455 2 
5886 5454 5453 1 
5887 5454 5456 1 
5888 5454 5457 1 
5889 5454 5458 1 
5890 5456 5466 1 
5891 5456 5467 1 
5892 5457 5464 1 
5893 5457 5465 1 
5894 5458 5436 1 
5895 5459 5456 1 
5896 5459 5463 1 
5897 5460 5457 1 
5898 5460 5459 1 
5899 5461 5459 1 
5900 5462 5461 2 
5901 5468 5261 1 
5902 5468 5471 1 
5903 5468 5472 1 
5904 5468 5469 1 
5905 5470 5469 2 
5906 5474 5473 1 
5907 5474 5476 1 
5908 5474 5477 1 
5909 5474 5478 1 
5910 5475 5473 2 
5911 5476 5486 1 
5912 5476 5487 1 
5913 5477 5484 1 
5914 5477 5485 1 
5915 5479 5476 1 
5916 5479 5483 1 
5917 5480 5477 1 
5918 5480 5479 1 
5919 5480 5670 1 
5920 5481 5479 1 
5921 5481 5671 1 
5922 5482 5481 2 
5923 5488 5489 2 
5924 5490 5489 1 
5925 5491 5490 1 
5926 5492 5490 1 
5927 5492 5494 1 
5928 5493 5491 1 
5929 5493 5526 1 
5930 5493 5495 1 
5931 5494 5525 1 
5932 5495 5494 1 
5933 5496 5495 1 
5934 5496 5523 1 
5935 5496 5524 1 
5936 5497 5496 1 
5937 5498 5497 1 
5938 5499 5498 1 
5939 5499 5522 1 
5940 5499 5501 1 
5941 5499 5502 1 
5942 5500 5498 2 
5943 5502 5520 1 
5944 5502 5521 1 
5945 5503 5501 1 
5946 5503 5518 1 
5947 5503 5519 1 
5948 5504 5502 1 
5949 5504 5503 1 
5950 5504 5506 1 
5951 5505 5504 1 
5952 5505 5507 1 
5953 5507 5516 1 
5954 5507 5517 1 
5955 5508 5506 2 
5956 5509 5507 1 
5957 5509 5514 1 
5958 5509 5515 1 
5959 5510 5509 1 
5960 5510 5513 1 
5961 5511 5510 1 
5962 5512 5510 1 
5963 5527 5492 1 
5964 5528 5491 1 
5965 5529 5497 1 
5966 5530 5538 1 
5967 5530 5539 1 
5968 5531 5432 1 
5969 5531 5530 1 
5970 5531 5536 1 
5971 5531 5537 1 
5972 5532 5530 1 
5973 5532 5535 1 
5974 5533 5532 1 
5975 5534 5532 1 
5976 5540 5553 1 
5977 5540 5554 1 
5978 5541 5540 1 
5979 5541 5552 1 
5980 5542 5540 1 
5981 5543 5506 1 
5982 5543 5541 1 
5983 5544 5505 1 
5984 5544 5541 1 
5985 5544 5548 2 
5986 5545 5542 1 
5987 5545 5543 1 
5988 5545 5550 1 
5989 5545 5551 1 
5990 5546 5167 1 
5991 5546 5542 1 
5992 5546 5710 1 
5993 5547 5165 1 
5994 5547 5542 1 
5995 5547 5549 2 
5996 5555 5563 1 
5997 5555 5564 1 
5998 5555 5557 1 
5999 5556 5478 1 
6000 5556 5555 1 
6001 5556 5561 1 
6002 5556 5562 1 
6003 5558 5557 1 
6004 5559 5557 1 
6005 5560 5557 1 
6006 5565 5578 1 
6007 5565 5579 1 
6008 5565 5566 1 
6009 5565 5567 1 
6010 5566 5577 1 
6011 5568 5433 1 
6012 5568 5566 1 
6013 5569 5432 1 
6014 5569 5566 1 
6015 5569 5573 2 
6016 5570 5567 1 
6017 5570 5568 1 
6018 5570 5575 1 
6019 5570 5576 1 
6020 5571 5567 1 
6021 5571 5574 2 
6022 5572 5567 1 
6023 5572 5627 1 
6024 5581 5580 1 
6025 5582 5581 1 
6026 5583 5581 1 
6027 5584 5581 1 
6028 5585 5580 1 
6029 5586 5580 1 
6030 5587 5742 1 
6031 5587 5593 1 
6032 5588 5587 1 
6033 5589 5588 1 
6034 5590 5588 1 
6035 5591 5588 1 
6036 5592 5587 1 
6037 5595 5682 1 
6038 5595 5594 1 
6039 5596 5595 1 
6040 5597 5596 1 
6041 5597 5608 1 
6042 5597 5609 1 
6043 5597 5600 1 
6044 5598 5596 1 
6045 5598 5606 1 
6046 5598 5607 1 
6047 5598 5601 1 
6048 5599 5596 1 
6049 5599 5680 1 
6050 5599 5602 2 
6051 5601 5736 1 
6052 5601 5600 1 
6053 5603 5740 1 
6054 5603 5600 1 
6055 5604 5603 2 
6056 5605 5600 1 
6057 5610 5622 1 
6058 5610 5623 1 
6059 5610 5611 1 
6060 5610 5612 1 
6061 5611 5621 1 
6062 5612 5698 1 
6063 5613 5611 1 
6064 5613 5620 1 
6065 5613 5619 1 
6066 5614 5721 1 
6067 5614 5611 1 
6068 5614 5624 1 
6069 5615 5612 1 
6070 5615 5613 1 
6071 5615 5616 1 
6072 5615 5618 1 
6073 5616 5697 1 
6074 5617 5616 2 
6075 5625 5632 1 
6076 5625 5633 1 
6077 5625 5634 1 
6078 5626 5625 1 
6079 5626 5630 1 
6080 5626 5631 1 
6081 5627 5626 1 
6082 5627 5629 1 
6083 5628 5627 1 
6084 5635 5645 1 
6085 5635 5646 1 
6086 5636 5271 1 
6087 5636 5635 1 
6088 5636 5648 1 
6089 5637 5635 1 
6090 5637 5643 1 
6091 5637 5644 1 
6092 5638 5637 1 
6093 5639 5638 1 
6094 5639 5478 1 
6095 5640 5638 1 
6096 5640 5473 1 
6097 5640 5647 1 
6098 5641 5639 2 
6099 5642 5638 1 
6100 5649 5662 1 
6101 5649 5663 1 
6102 5650 5649 1 
6103 5651 5649 1 
6104 5651 5655 1 
6105 5651 5571 1 
6106 5652 5650 1 
6107 5652 5655 1 
6108 5652 5660 1 
6109 5652 5661 1 
6110 5653 5650 1 
6111 5653 5176 1 
6112 5654 5650 1 
6113 5654 5656 2 
6114 5657 5655 1 
6115 5657 5572 1 
6116 5658 5657 2 
6117 5659 5655 1 
6118 5664 5677 1 
6119 5664 5678 1 
6120 5664 5666 1 
6121 5665 5664 1 
6122 5665 5676 1 
6123 5665 5668 1 
6124 5665 5667 1 
6125 5669 5666 1 
6126 5669 5667 1 
6127 5669 5674 1 
6128 5669 5675 1 
6129 5670 5666 1 
6130 5671 5666 1 
6131 5672 5668 2 
6132 5673 5670 2 
6133 5679 5692 1 
6134 5679 5681 1 
6135 5679 5682 1 
6136 5680 5679 1 
6137 5680 5683 1 
6138 5681 5690 1 
6139 5681 5691 1 
6140 5683 5688 1 
6141 5683 5689 1 
6142 5684 5681 1 
6143 5684 5683 1 
6144 5685 5682 2 
6145 5686 5684 1 
6146 5686 5264 1 
6147 5686 5693 1 
6148 5687 5684 1 
6149 5695 5694 1 
6150 5695 5708 1 
6151 5695 5709 1 
6152 5695 5699 1 
6153 5696 5694 1 
6154 5696 5706 1 
6155 5696 5707 1 
6156 5696 5700 1 
6157 5697 5694 1 
6158 5697 5701 1 
6159 5698 5694 1 
6160 5698 5702 2 
6161 5700 5699 1 
6162 5700 5257 1 
6163 5703 5699 1 
6164 5703 5261 1 
6165 5704 5703 2 
6166 5705 5699 1 
6167 5710 5718 1 
6168 5710 5719 1 
6169 5711 5710 1 
6170 5711 5716 1 
6171 5711 5717 1 
6172 5712 5711 1 
6173 5712 5715 1 
6174 5712 5713 1 
6175 5712 5714 1 
6176 5721 5720 2 
6177 5722 5721 1 
6178 5722 5734 1 
6179 5723 5722 1 
6180 5724 5722 1 
6181 5724 5732 1 
6182 5724 5733 1 
6183 5725 5723 1 
6184 5725 5731 1 
6185 5725 5730 1 
6186 5726 5724 1 
6187 5726 5725 1 
6188 5726 5728 1 
6189 5727 5726 1 
6190 5729 5728 2 
6191 5736 5735 2 
6192 5737 5736 1 
6193 5737 5738 1 
6194 5737 5739 1 
6195 5737 5740 1 
6196 5738 5748 1 
6197 5738 5749 1 
6198 5739 5746 1 
6199 5739 5747 1 
6200 5741 5738 1 
6201 5741 5745 1 
6202 5742 5739 1 
6203 5742 5741 1 
6204 5743 5741 1 
6205 5744 5743 2 
6206 5750 5763 1 
6207 5750 5751 1 
6208 5750 5752 1 
6209 5750 5753 1 
6210 5752 5761 1 
6211 5752 5762 1 
6212 5754 5751 1 
6213 5754 5759 1 
6214 5754 5760 1 
6215 5755 5752 1 
6216 5755 5754 1 
6217 5756 5753 2 
6218 5757 5755 1 
6219 5757 5743 1 
6220 5757 5764 1 
6221 5758 5755 1 
6222 5765 5423 1 
6223 5765 5778 1 
6224 5765 5766 1 
6225 5766 5775 1 
6226 5766 5776 1 
6227 5767 5766 1 
6228 5767 5774 1 
6229 5767 5773 1 
6230 5768 5767 1 
6231 5769 5404 1 
6232 5769 5768 1 
6233 5770 5768 1 
6234 5770 5405 1 
6235 5770 5777 1 
6236 5771 5769 2 
6237 5772 5768 1 
6238 5779 5789 1 
6239 5779 5790 1 
6240 5780 6416 1 
6241 5780 5779 1 
6242 5780 5792 1 
6243 5781 5779 1 
6244 5781 5787 1 
6245 5781 5788 1 
6246 5782 5781 1 
6247 5782 5786 1 
6248 5783 5782 1 
6249 5783 6240 1 
6250 5783 5785 2 
6251 5784 5782 1 
6252 5784 6235 1 
6253 5784 5791 1 
6254 5794 6093 1 
6255 5794 5793 1 
6256 5795 5794 1 
6257 5796 5795 1 
6258 5796 5807 1 
6259 5796 5808 1 
6260 5797 5795 1 
6261 5797 5800 1 
6262 5797 5805 1 
6263 5797 5806 1 
6264 5798 5795 1 
6265 5798 6091 1 
6266 5798 5801 2 
6267 5799 5796 1 
6268 5799 5800 1 
6269 5799 5802 1 
6270 5799 5804 1 
6271 5800 6291 1 
6272 5802 6295 1 
6273 5803 5802 2 
6274 5809 6215 1 
6275 5810 5809 1 
6276 5811 5809 2 
6277 5812 5810 1 
6278 5812 5822 1 
6279 5812 5823 1 
6280 5812 5815 1 
6281 5813 5810 1 
6282 5813 5820 1 
6283 5813 5821 1 
6284 5813 5816 1 
6285 5814 5810 1 
6286 5814 6221 1 
6287 5816 5860 1 
6288 5816 5815 1 
6289 5817 5859 1 
6290 5817 5815 1 
6291 5818 5817 2 
6292 5819 5815 1 
6293 5824 5832 1 
6294 5824 5833 1 
6295 5824 5825 1 
6296 5824 5831 1 
6297 5826 5814 1 
6298 5826 5825 1 
6299 5827 5826 1 
6300 5828 5826 1 
6301 5829 5825 1 
6302 5830 5825 1 
6303 5834 5847 1 
6304 5834 5848 1 
6305 5835 5834 1 
6306 5836 6380 1 
6307 5836 5834 1 
6308 5837 5835 1 
6309 5837 5845 1 
6310 5837 5846 1 
6311 5838 5894 1 
6312 5838 5835 1 
6313 5838 5841 2 
6314 5839 5895 1 
6315 5839 5835 1 
6316 5839 6357 1 
6317 5840 5836 1 
6318 5840 5837 1 
6319 5840 5842 1 
6320 5840 5844 1 
6321 5842 6379 1 
6322 5843 5842 2 
6323 5849 5852 1 
6324 5849 5851 2 
6325 5849 5850 1 
6326 5850 5889 1 
6327 5852 5890 1 
6328 5853 5850 1 
6329 5854 5850 1 
6330 5854 5887 1 
6331 5854 5888 1 
6332 5855 5852 1 
6333 5855 5885 1 
6334 5855 5886 1 
6335 5855 5858 1 
6336 5856 5853 1 
6337 5856 5883 1 
6338 5856 5884 1 
6339 5857 5854 1 
6340 5857 5856 1 
6341 5857 5859 1 
6342 5857 5860 1 
6343 5861 5858 1 
6344 5861 5882 1 
6345 5862 5858 1 
6346 5862 5881 1 
6347 5862 5866 1 
6348 5863 5859 1 
6349 5863 5879 1 
6350 5863 5880 1 
6351 5863 5867 1 
6352 5864 5860 2 
6353 5865 5861 1 
6354 5865 5878 1 
6355 5865 5868 1 
6356 5866 5877 1 
6357 5867 5875 1 
6358 5867 5876 1 
6359 5868 5866 1 
6360 5869 5867 1 
6361 5869 5873 1 
6362 5869 5874 1 
6363 5870 5868 1 
6364 5870 6118 1 
6365 5871 5870 2 
6366 5872 5869 1 
6367 5891 5904 1 
6368 5891 5905 1 
6369 5892 5891 1 
6370 5892 5903 1 
6371 5893 5891 1 
6372 5893 5896 1 
6373 5893 5897 1 
6374 5893 5898 1 
6375 5894 5892 1 
6376 5894 5896 1 
6377 5895 5892 1 
6378 5895 5899 2 
6379 5900 5898 2 
6380 5901 5896 1 
6381 5902 5896 1 
6382 5906 5919 1 
6383 5906 5909 1 
6384 5907 5906 1 
6385 5907 5910 1 
6386 5908 5906 1 
6387 5908 5917 1 
6388 5908 5918 1 
6389 5908 5911 1 
6390 5910 5916 1 
6391 5911 5910 1 
6392 5912 5909 2 
6393 5913 6298 1 
6394 5913 5911 1 
6395 5913 5920 1 
6396 5914 5911 1 
6397 5915 5910 1 
6398 5921 5928 1 
6399 5921 5929 1 
6400 5921 5930 1 
6401 5922 5921 1 
6402 5922 5926 1 
6403 5922 5927 1 
6404 5923 5922 1 
6405 5924 5923 1 
6406 5925 5923 1 
6407 5931 5943 1 
6408 5931 5944 1 
6409 5932 5931 1 
6410 5932 5942 1 
6411 5933 6334 1 
6412 5933 5931 1 
6413 5933 5936 1 
6414 5934 5932 1 
6415 5934 5940 1 
6416 5934 5941 1 
6417 5934 5936 1 
6418 5935 5932 1 
6419 5935 5945 1 
6420 5937 6333 1 
6421 5937 5936 1 
6422 5938 5937 2 
6423 5939 5936 1 
6424 5946 5959 1 
6425 5946 5960 1 
6426 5946 5947 1 
6427 5946 5948 1 
6428 5947 5958 1 
6429 5948 5952 1 
6430 5948 5953 1 
6431 5949 5947 1 
6432 5950 5947 1 
6433 5950 5954 2 
6434 5951 5948 1 
6435 5951 5949 1 
6436 5951 5956 1 
6437 5951 5957 1 
6438 5953 6348 1 
6439 5955 5952 2 
6440 5961 5968 1 
6441 5961 5969 1 
6442 5961 5970 1 
6443 5962 5961 1 
6444 5962 5966 1 
6445 5962 5967 1 
6446 5963 5962 1 
6447 5963 5964 1 
6448 5963 5965 1 
6449 5971 5981 1 
6450 5971 5982 1 
6451 5972 5971 1 
6452 5972 5980 1 
6453 5972 5975 1 
6454 5973 5971 1 
6455 5973 5979 1 
6456 5973 5976 1 
6457 5973 5978 1 
6458 5974 5972 1 
6459 5974 6279 1 
6460 5974 5977 2 
6461 5975 5984 1 
6462 5975 6280 1 
6463 5976 5983 1 
6464 5976 6086 1 
6465 5985 6198 1 
6466 5985 5998 1 
6467 5986 5985 1 
6468 5986 5995 1 
6469 5986 5996 1 
6470 5987 5986 1 
6471 5987 5993 1 
6472 5987 5994 1 
6473 5988 5987 1 
6474 5988 5992 1 
6475 5989 5897 1 
6476 5989 5988 1 
6477 5990 5898 1 
6478 5990 5988 1 
6479 5990 5997 1 
6480 5991 5989 2 
6481 6000 5999 1 
6482 6001 6000 1 
6483 6002 6000 1 
6484 6003 5999 1 
6485 6004 5999 1 
6486 6005 5999 1 
6487 6006 6007 1 
6488 6006 6008 1 
6489 6006 6019 1 
6490 6006 6020 1 
6491 6007 6018 1 
6492 6008 6012 1 
6493 6008 6013 1 
6494 6009 6218 1 
6495 6009 6007 1 
6496 6010 6217 1 
6497 6010 6007 1 
6498 6010 6014 2 
6499 6011 6008 1 
6500 6011 6009 1 
6501 6011 6016 1 
6502 6011 6017 1 
6503 6013 6307 1 
6504 6015 6012 2 
6505 6022 6021 2 
6506 6022 6023 1 
6507 6024 6023 1 
6508 6024 6034 1 
6509 6024 6035 1 
6510 6025 6023 1 
6511 6025 6032 1 
6512 6025 6033 1 
6513 6026 6023 1 
6514 6027 6024 1 
6515 6027 6031 1 
6516 6028 6025 1 
6517 6028 6027 1 
6518 6029 6097 1 
6519 6029 6027 1 
6520 6030 6029 2 
6521 6037 5853 1 
6522 6037 6036 2 
6523 6038 6037 1 
6524 6039 6038 1 
6525 6039 6076 1 
6526 6040 6038 1 
6527 6040 6075 1 
6528 6041 6039 1 
6529 6041 6074 1 
6530 6041 6043 1 
6531 6042 6040 1 
6532 6042 6073 1 
6533 6042 6043 1 
6534 6044 6043 1 
6535 6044 6071 1 
6536 6044 6072 1 
6537 6045 6044 1 
6538 6045 6077 1 
6539 6046 6045 1 
6540 6047 6046 1 
6541 6047 6070 1 
6542 6048 6046 2 
6543 6049 6106 1 
6544 6049 6047 1 
6545 6049 6051 1 
6546 6050 6047 1 
6547 6050 6068 1 
6548 6050 6069 1 
6549 6050 6052 1 
6550 6051 6066 1 
6551 6051 6067 1 
6552 6052 6051 1 
6553 6053 6052 1 
6554 6053 6177 1 
6555 6054 6052 1 
6556 6054 6176 1 
6557 6055 6053 1 
6558 6055 6064 1 
6559 6055 6065 1 
6560 6056 6054 2 
6561 6057 6055 1 
6562 6057 6062 1 
6563 6057 6063 1 
6564 6058 6057 1 
6565 6058 6059 1 
6566 6058 6060 1 
6567 6058 6061 1 
6568 6078 6297 1 
6569 6078 6083 1 
6570 6078 6084 1 
6571 6079 6078 1 
6572 6079 6080 1 
6573 6079 6081 1 
6574 6079 6082 1 
6575 6085 6026 1 
6576 6085 6086 1 
6577 6085 6088 1 
6578 6085 6089 1 
6579 6087 6086 2 
6580 6091 6090 1 
6581 6091 6094 1 
6582 6092 6090 1 
6583 6092 6095 1 
6584 6093 6090 1 
6585 6093 6096 2 
6586 6095 6094 1 
6587 6097 6095 1 
6588 6098 6095 1 
6589 6099 6094 1 
6590 6100 6094 1 
6591 6101 6092 1 
6592 6102 6092 1 
6593 6103 6090 1 
6594 6104 6097 1 
6595 6106 6105 1 
6596 6107 6105 1 
6597 6107 6145 1 
6598 6107 6110 1 
6599 6108 6105 1 
6600 6108 6144 1 
6601 6108 6111 1 
6602 6109 6106 2 
6603 6110 6143 1 
6604 6111 6142 1 
6605 6112 6111 1 
6606 6112 6110 1 
6607 6113 6112 1 
6608 6113 6140 1 
6609 6113 6141 1 
6610 6114 6113 1 
6611 6114 6146 1 
6612 6115 6114 1 
6613 6116 6115 1 
6614 6116 6139 1 
6615 6116 6118 1 
6616 6116 6119 1 
6617 6117 6115 2 
6618 6119 6137 1 
6619 6119 6138 1 
6620 6120 6118 1 
6621 6120 6135 1 
6622 6120 6136 1 
6623 6121 6119 1 
6624 6121 6120 1 
6625 6122 6121 1 
6626 6123 6121 1 
6627 6123 6125 2 
6628 6124 6122 1 
6629 6124 6133 1 
6630 6124 6134 1 
6631 6124 6126 1 
6632 6126 6132 1 
6633 6127 6126 1 
6634 6128 6127 1 
6635 6129 6127 1 
6636 6130 6127 1 
6637 6131 6126 1 
6638 6147 6149 1 
6639 6147 5909 1 
6640 6148 6147 1 
6641 6148 6150 1 
6642 6148 6151 1 
6643 6148 6152 1 
6644 6150 6161 1 
6645 6150 6162 1 
6646 6151 6159 1 
6647 6151 6160 1 
6648 6152 5907 1 
6649 6153 6150 1 
6650 6153 6156 1 
6651 6153 6158 1 
6652 6154 6153 1 
6653 6154 6151 1 
6654 6155 6152 2 
6655 6157 6156 2 
6656 6163 6171 1 
6657 6163 6172 1 
6658 6164 6217 1 
6659 6164 6163 1 
6660 6164 6169 1 
6661 6164 6170 1 
6662 6165 6163 1 
6663 6165 6168 1 
6664 6166 6165 1 
6665 6167 6165 1 
6666 6173 6186 1 
6667 6173 6187 1 
6668 6174 6173 1 
6669 6174 6185 1 
6670 6175 6173 1 
6671 6175 6180 1 
6672 6175 6179 1 
6673 6176 6174 1 
6674 6177 6174 1 
6675 6177 6181 2 
6676 6178 6175 1 
6677 6178 6176 1 
6678 6178 6183 1 
6679 6178 6184 1 
6680 6179 6384 1 
6681 6179 6366 1 
6682 6180 6382 1 
6683 6182 6180 2 
6684 6188 6195 1 
6685 6188 6196 1 
6686 6188 6197 1 
6687 6188 6189 1 
6688 6189 6194 1 
6689 6190 6189 1 
6690 6191 6190 1 
6691 6192 6190 1 
6692 6193 6189 1 
6693 6199 6198 1 
6694 6200 6198 2 
6695 6201 6199 1 
6696 6202 6199 1 
6697 6203 6210 1 
6698 6203 6211 1 
6699 6203 6212 1 
6700 6204 6203 1 
6701 6205 6204 1 
6702 6205 5897 1 
6703 6206 6205 1 
6704 6207 6205 1 
6705 6208 6204 1 
6706 6209 6204 1 
6707 6213 6226 1 
6708 6213 6227 1 
6709 6214 6213 1 
6710 6215 6213 1 
6711 6216 6214 1 
6712 6216 6224 1 
6713 6216 6225 1 
6714 6217 6214 1 
6715 6218 6214 1 
6716 6218 6220 2 
6717 6219 6215 1 
6718 6219 6216 1 
6719 6219 6221 1 
6720 6219 6223 1 
6721 6222 6221 2 
6722 6228 6028 1 
6723 6229 6228 1 
6724 6230 6229 1 
6725 6231 6229 1 
6726 6232 6229 1 
6727 6233 6228 1 
6728 6234 6228 1 
6729 6235 6236 1 
6730 6235 6237 2 
6731 6238 6236 1 
6732 6238 6248 1 
6733 6238 6249 1 
6734 6239 6236 1 
6735 6239 6246 1 
6736 6239 6247 1 
6737 6240 6236 1 
6738 6241 6238 1 
6739 6241 6243 1 
6740 6241 6245 1 
6741 6242 6239 1 
6742 6242 6241 1 
6743 6242 5952 1 
6744 6243 5953 1 
6745 6244 6243 2 
6746 6250 6379 1 
6747 6250 6259 1 
6748 6250 6258 1 
6749 6251 6250 1 
6750 6251 6256 1 
6751 6251 6257 1 
6752 6252 6251 1 
6753 6252 6255 1 
6754 6253 6252 1 
6755 6254 6252 1 
6756 6260 6264 1 
6757 6260 6262 1 
6758 6260 6263 1 
6759 6261 6260 1 
6760 6261 6273 1 
6761 6261 6274 1 
6762 6261 6265 1 
6763 6262 6266 1 
6764 6262 6271 1 
6765 6262 6272 1 
6766 6263 6190 1 
6767 6266 6123 1 
6768 6266 6265 1 
6769 6267 6264 2 
6770 6268 6122 1 
6771 6268 6265 1 
6772 6269 6268 2 
6773 6270 6265 1 
6774 6275 6288 1 
6775 6275 6289 1 
6776 6276 6275 1 
6777 6276 6278 1 
6778 6276 6279 1 
6779 6276 6280 1 
6780 6277 6275 1 
6781 6277 6012 1 
6782 6277 6281 1 
6783 6278 6286 1 
6784 6278 6287 1 
6785 6278 6281 1 
6786 6279 5963 1 
6787 6282 6280 2 
6788 6283 6281 1 
6789 6283 6013 1 
6790 6284 6283 2 
6791 6285 6281 1 
6792 6291 6290 2 
6793 6292 6291 1 
6794 6292 6293 1 
6795 6292 6294 1 
6796 6292 6295 1 
6797 6293 6303 1 
6798 6293 6304 1 
6799 6294 6302 1 
6800 6294 6301 1 
6801 6295 6417 1 
6802 6296 6293 1 
6803 6296 6298 1 
6804 6296 6300 1 
6805 6297 6294 1 
6806 6297 6296 1 
6807 6299 6298 2 
6808 6305 6312 1 
6809 6305 6313 1 
6810 6305 6314 1 
6811 6305 6306 1 
6812 6307 6306 1 
6813 6308 6307 1 
6814 6309 6307 1 
6815 6310 6306 1 
6816 6311 6306 1 
6817 6315 5950 1 
6818 6315 5923 1 
6819 6316 6315 1 
6820 6317 6316 1 
6821 6317 6328 1 
6822 6317 6329 1 
6823 6318 6316 1 
6824 6318 6326 1 
6825 6318 6327 1 
6826 6318 6321 1 
6827 6319 5949 1 
6828 6319 6316 1 
6829 6319 6322 2 
6830 6320 6317 1 
6831 6320 6325 1 
6832 6320 6323 1 
6833 6320 6321 1 
6834 6321 6264 1 
6835 6323 6263 1 
6836 6324 6323 2 
6837 6331 6330 1 
6838 6331 6335 1 
6839 6331 6344 1 
6840 6331 6345 1 
6841 6332 6330 1 
6842 6332 6336 1 
6843 6332 6342 1 
6844 6332 6343 1 
6845 6333 6330 1 
6846 6333 6337 1 
6847 6334 6330 1 
6848 6334 6338 2 
6849 6335 6339 1 
6850 6335 6341 1 
6851 6336 6335 1 
6852 6336 6022 1 
6853 6339 6026 1 
6854 6340 6339 2 
6855 6346 6353 1 
6856 6346 6354 1 
6857 6346 6355 1 
6858 6347 6346 1 
6859 6347 6352 1 
6860 6347 6351 1 
6861 6348 6347 1 
6862 6348 6350 1 
6863 6349 6348 1 
6864 6356 6365 1 
6865 6356 6364 1 
6866 6357 6356 1 
6867 6357 6362 1 
6868 6357 6363 1 
6869 6358 6356 1 
6870 6358 6361 1 
6871 6359 6358 1 
6872 6360 6358 1 
6873 6366 6375 1 
6874 6366 6374 1 
6875 6367 6366 1 
6876 6368 6367 1 
6877 6369 6368 1 
6878 6370 6368 1 
6879 6371 6368 1 
6880 6372 6367 1 
6881 6373 6367 1 
6882 6376 6380 1 
6883 6377 6376 1 
6884 6377 6389 1 
6885 6377 6390 1 
6886 6377 6381 1 
6887 6378 6376 1 
6888 6378 6387 1 
6889 6378 6388 1 
6890 6378 6382 1 
6891 6379 6376 1 
6892 6381 6386 1 
6893 6382 6381 1 
6894 6383 6380 2 
6895 6384 6381 1 
6896 6384 6385 2 
6897 6391 6392 2 
6898 6392 5935 1 
6899 6393 6392 1 
6900 6393 6405 1 
6901 6394 6393 1 
6902 6394 6000 1 
6903 6395 6393 1 
6904 6395 6397 1 
6905 6395 6403 1 
6906 6395 6404 1 
6907 6396 6394 1 
6908 6396 6397 1 
6909 6396 6401 1 
6910 6396 6402 1 
6911 6398 6397 1 
6912 6398 6156 1 
6913 6398 6199 1 
6914 6399 6397 1 
6915 6399 6154 1 
6916 6400 6399 2 
6917 6406 6414 1 
6918 6406 6415 1 
6919 6407 6240 1 
6920 6407 6406 1 
6921 6407 6412 1 
6922 6407 6413 1 
6923 6408 6406 1 
6924 6409 6408 1 
6925 6410 6408 1 
6926 6411 6408 1 
6927 6416 6418 2 
6928 6417 6416 1 
6929 6417 6419 1 
6930 6417 6420 1 
6931 6422 6421 2 
6932 6422 6423 1 
6933 6423 6425 1 
6934 6423 6426 1 
6935 6424 6423 1 
6936 6424 6434 1 
6937 6424 6435 1 
6938 6424 6427 1 
6939 6425 6428 1 
6940 6425 6432 1 
6941 6425 6433 1 
6942 6427 6428 1 
6943 6427 6429 1 
6944 6427 6431 1 
6945 6428 6641 1 
6946 6429 6655 1 
6947 6430 6429 2 
6948 6436 6437 1 
6949 6437 6651 1 
6950 6438 6437 1 
6951 6438 6439 1 
6952 6438 6440 1 
6953 6438 6441 1 
6954 6441 6649 1 
6955 6442 6439 1 
6956 6443 7039 1 
6957 6443 6440 1 
6958 6443 6442 1 
6959 6444 6441 2 
6960 6445 6442 1 
6961 6445 7043 1 
6962 6445 6446 2 
6963 6447 6442 1 
6964 6448 6440 1 
6965 6449 6440 1 
6966 6450 6439 1 
6967 6451 6439 1 
6968 6452 6453 1 
6969 6452 6459 1 
6970 6452 6460 1 
6971 6452 6461 1 
6972 6453 6457 1 
6973 6453 6458 1 
6974 6454 6617 1 
6975 6454 6453 1 
6976 6454 6455 1 
6977 6454 6456 1 
6978 6462 6470 1 
6979 6462 6471 1 
6980 6462 6463 1 
6981 6462 6464 1 
6982 6463 6769 1 
6983 6463 6468 1 
6984 6463 6469 1 
6985 6464 6467 1 
6986 6464 6466 1 
6987 6464 6465 1 
6988 6472 6482 1 
6989 6472 6483 1 
6990 6473 6472 1 
6991 6473 6481 1 
6992 6474 6472 1 
6993 6474 6477 1 
6994 6474 6479 1 
6995 6474 6480 1 
6996 6475 6473 1 
6997 6475 6478 2 
6998 6475 6512 1 
6999 6476 6473 1 
7000 6476 6513 1 
7001 6476 6485 1 
7002 6477 6484 1 
7003 6486 7045 1 
7004 6486 6491 1 
7005 6486 6492 1 
7006 6487 6486 1 
7007 6487 6490 1 
7008 6488 6487 1 
7009 6489 6487 1 
7010 6493 6506 1 
7011 6493 6507 1 
7012 6493 6494 1 
7013 6493 6495 1 
7014 6494 6505 1 
7015 6495 6499 1 
7016 6495 6500 1 
7017 6496 6494 1 
7018 6497 6494 1 
7019 6497 6501 2 
7020 6498 6495 1 
7021 6498 6496 1 
7022 6498 6503 1 
7023 6498 6504 1 
7024 6499 6686 1 
7025 6500 6684 1 
7026 6502 6500 2 
7027 6508 6521 1 
7028 6508 6522 1 
7029 6509 6508 1 
7030 6509 6513 1 
7031 6509 6511 1 
7032 6509 6512 1 
7033 6510 6508 1 
7034 6510 6514 1 
7035 6510 6616 1 
7036 6511 6514 1 
7037 6511 6519 1 
7038 6511 6520 1 
7039 6513 6515 2 
7040 6516 6514 1 
7041 6516 6617 1 
7042 6517 6516 2 
7043 6518 6514 1 
7044 6523 6525 2 
7045 6524 6523 1 
7046 6524 6527 1 
7047 6524 6526 1 
7048 6528 6681 1 
7049 6528 6536 1 
7050 6528 6537 1 
7051 6528 6529 1 
7052 6529 6534 1 
7053 6529 6535 1 
7054 6530 6529 1 
7055 6530 6533 1 
7056 6530 6532 1 
7057 6531 6530 1 
7058 6538 6541 1 
7059 6539 6538 1 
7060 6539 6578 1 
7061 6539 6542 1 
7062 6539 6543 1 
7063 6540 6538 2 
7064 6541 6579 1 
7065 6543 6546 1 
7066 6543 6576 1 
7067 6543 6577 1 
7068 6544 6541 1 
7069 6544 6547 1 
7070 6544 6574 1 
7071 6544 6575 1 
7072 6545 6542 1 
7073 6545 6572 1 
7074 6545 6573 1 
7075 6545 6546 1 
7076 6546 6549 1 
7077 6547 6550 1 
7078 6547 6551 1 
7079 6548 6546 1 
7080 6548 6552 1 
7081 6549 6553 2 
7082 6550 6571 1 
7083 6550 6554 1 
7084 6551 6570 1 
7085 6552 6568 1 
7086 6552 6569 1 
7087 6552 6556 1 
7088 6554 6557 1 
7089 6554 6567 1 
7090 6555 6551 1 
7091 6555 6557 1 
7092 6555 6566 1 
7093 6556 6564 1 
7094 6556 6565 1 
7095 6557 6559 1 
7096 6558 6556 1 
7097 6558 6561 1 
7098 6558 6562 1 
7099 6558 6563 1 
7100 6559 6833 1 
7101 6560 6559 2 
7102 6580 6593 1 
7103 6580 6594 1 
7104 6580 6582 1 
7105 6581 6580 1 
7106 6581 6585 1 
7107 6581 6584 1 
7108 6581 6583 1 
7109 6582 6682 1 
7110 6582 6586 1 
7111 6583 6586 1 
7112 6583 6591 1 
7113 6583 6592 1 
7114 6584 6865 1 
7115 6584 6587 2 
7116 6585 6866 1 
7117 6585 6711 1 
7118 6586 6588 1 
7119 6586 6590 1 
7120 6588 6681 1 
7121 6589 6588 2 
7122 6595 6598 1 
7123 6595 6599 1 
7124 6596 6595 1 
7125 6596 6608 1 
7126 6596 6609 1 
7127 6596 6600 1 
7128 6597 6595 1 
7129 6597 6606 1 
7130 6597 6607 1 
7131 6597 6601 1 
7132 6599 6602 2 
7133 6600 6605 1 
7134 6600 6603 1 
7135 6601 6600 1 
7136 6601 6838 1 
7137 6603 6837 1 
7138 6604 6603 2 
7139 6610 6623 1 
7140 6610 6624 1 
7141 6611 6610 1 
7142 6611 6622 1 
7143 6612 6610 1 
7144 6612 6615 1 
7145 6612 6616 1 
7146 6612 6617 1 
7147 6613 6611 1 
7148 6613 6810 1 
7149 6613 6615 1 
7150 6614 6611 1 
7151 6614 6809 1 
7152 6614 6618 2 
7153 6615 6620 1 
7154 6615 6621 1 
7155 6619 6616 2 
7156 6625 6628 1 
7157 6625 6629 1 
7158 6626 6625 1 
7159 6626 6639 1 
7160 6626 6640 1 
7161 6626 6630 1 
7162 6627 6625 1 
7163 6627 6637 1 
7164 6627 6638 1 
7165 6627 6631 1 
7166 6628 6632 1 
7167 6629 6633 2 
7168 6630 6634 1 
7169 6630 6636 1 
7170 6631 6630 1 
7171 6631 6422 1 
7172 6634 6426 1 
7173 6634 6635 2 
7174 6641 6646 1 
7175 6641 6647 1 
7176 6642 6641 1 
7177 6642 6645 1 
7178 6643 6642 1 
7179 6644 6642 1 
7180 6648 6661 1 
7181 6649 6648 1 
7182 6650 6648 1 
7183 6650 6659 1 
7184 6650 6660 1 
7185 6650 6653 1 
7186 6651 6648 1 
7187 6651 6654 2 
7188 6652 6649 1 
7189 6652 6657 1 
7190 6652 6658 1 
7191 6652 6653 1 
7192 6653 6655 1 
7193 6653 6656 1 
7194 6655 6662 1 
7195 6663 6664 2 
7196 6665 6664 1 
7197 6665 6677 1 
7198 6665 6667 1 
7199 6666 6665 1 
7200 6666 6668 1 
7201 6667 6675 1 
7202 6667 6676 1 
7203 6668 6674 1 
7204 6668 6673 1 
7205 6669 6667 1 
7206 6669 6668 1 
7207 6670 6669 1 
7208 6671 6669 1 
7209 6671 6672 2 
7210 6678 6682 1 
7211 6678 6679 1 
7212 6678 6680 1 
7213 6678 6681 1 
7214 6679 6683 1 
7215 6679 6691 1 
7216 6679 6692 1 
7217 6680 6689 1 
7218 6680 6690 1 
7219 6680 6684 1 
7220 6683 6686 1 
7221 6683 6688 1 
7222 6684 6683 1 
7223 6685 6682 2 
7224 6687 6686 2 
7225 6693 6700 1 
7226 6693 6701 1 
7227 6693 6702 1 
7228 6694 6693 1 
7229 6694 6698 1 
7230 6694 6699 1 
7231 6695 6954 1 
7232 6695 6694 1 
7233 6695 6696 1 
7234 6695 6697 1 
7235 6704 6666 1 
7236 6704 6703 1 
7237 6705 6704 1 
7238 6706 6704 1 
7239 6707 6703 1 
7240 6708 6703 1 
7241 6709 6703 1 
7242 6710 6718 1 
7243 6710 6719 1 
7244 6711 6710 1 
7245 6711 6716 1 
7246 6711 6717 1 
7247 6712 6710 1 
7248 6712 6715 1 
7249 6712 6713 1 
7250 6712 6714 1 
7251 6720 6730 1 
7252 6720 6731 1 
7253 6720 6722 1 
7254 6721 6523 1 
7255 6721 6720 1 
7256 6721 6733 1 
7257 6722 6728 1 
7258 6722 6729 1 
7259 6723 6722 1 
7260 6723 6725 1 
7261 6723 6727 1 
7262 6724 6723 1 
7263 6724 6769 1 
7264 6724 6726 2 
7265 6725 6764 1 
7266 6725 6732 1 
7267 6734 6747 1 
7268 6734 6748 1 
7269 6734 6735 1 
7270 6734 6736 1 
7271 6735 6746 1 
7272 6736 6740 1 
7273 6736 6741 1 
7274 6737 6735 1 
7275 6738 6735 1 
7276 6738 6742 2 
7277 6739 6736 1 
7278 6739 6737 1 
7279 6739 6744 1 
7280 6739 6745 1 
7281 6740 6771 1 
7282 6740 6743 2 
7283 6741 6772 1 
7284 6741 6971 1 
7285 6749 6761 1 
7286 6749 6762 1 
7287 6750 6749 1 
7288 6750 6760 1 
7289 6750 6752 1 
7290 6750 6753 1 
7291 6751 6749 1 
7292 6751 6629 1 
7293 6751 6754 1 
7294 6752 6759 1 
7295 6752 6754 1 
7296 6752 6758 1 
7297 6753 6664 1 
7298 6753 6763 1 
7299 6754 6757 1 
7300 6755 6628 1 
7301 6755 6754 1 
7302 6756 6755 2 
7303 6764 6765 1 
7304 6764 6766 2 
7305 6765 6767 1 
7306 6765 6768 1 
7307 6765 6769 1 
7308 6767 6770 1 
7309 6768 6771 1 
7310 6770 6774 1 
7311 6771 6770 1 
7312 6772 6770 1 
7313 6772 6773 2 
7314 6775 6768 1 
7315 6776 6768 1 
7316 6777 6767 1 
7317 6778 6767 1 
7318 6779 6781 1 
7319 6780 6779 1 
7320 6780 6784 1 
7321 6780 6782 1 
7322 6780 6783 1 
7323 6782 6793 1 
7324 6782 6794 1 
7325 6783 6791 1 
7326 6783 6792 1 
7327 6783 6786 1 
7328 6784 6787 2 
7329 6785 6782 1 
7330 6785 6786 1 
7331 6785 6788 1 
7332 6785 6790 1 
7333 6786 6671 1 
7334 6788 6670 1 
7335 6789 6788 2 
7336 6795 6802 1 
7337 6795 6803 1 
7338 6795 6804 1 
7339 6795 6796 1 
7340 6796 6800 1 
7341 6796 6801 1 
7342 6797 6892 1 
7343 6797 6796 1 
7344 6797 6799 1 
7345 6798 6797 1 
7346 6805 6818 1 
7347 6805 6819 1 
7348 6806 6805 1 
7349 6806 6810 1 
7350 6806 6809 1 
7351 6807 6811 1 
7352 6807 6805 1 
7353 6808 6806 1 
7354 6808 6811 1 
7355 6808 6816 1 
7356 6808 6817 1 
7357 6811 6815 1 
7358 6812 6810 2 
7359 6813 6811 1 
7360 6813 6814 2 
7361 6820 6822 1 
7362 6820 6823 1 
7363 6821 6820 1 
7364 6821 6824 2 
7365 6822 6860 1 
7366 6822 6825 1 
7367 6823 6826 1 
7368 6823 6859 1 
7369 6825 6858 1 
7370 6825 6827 1 
7371 6826 6857 1 
7372 6826 6827 1 
7373 6828 6827 1 
7374 6828 6855 1 
7375 6828 6856 1 
7376 6828 6829 1 
7377 6829 6861 1 
7378 6830 6829 1 
7379 6830 6831 1 
7380 6830 6832 2 
7381 6831 6854 1 
7382 6831 6833 1 
7383 6831 6834 1 
7384 6834 6852 1 
7385 6834 6853 1 
7386 6834 6836 1 
7387 6835 6833 1 
7388 6835 6850 1 
7389 6835 6851 1 
7390 6835 6836 1 
7391 6837 6836 1 
7392 6838 6836 1 
7393 6839 6837 1 
7394 6839 6848 1 
7395 6839 6849 1 
7396 6839 6841 1 
7397 6840 6838 2 
7398 6841 6846 1 
7399 6841 6847 1 
7400 6842 6841 1 
7401 6842 6843 1 
7402 6842 6844 1 
7403 6842 6845 1 
7404 6862 6875 1 
7405 6862 6876 1 
7406 6862 6863 1 
7407 6862 6864 1 
7408 6863 6874 1 
7409 6863 6865 1 
7410 6863 6866 1 
7411 6864 6867 1 
7412 6864 6868 1 
7413 6864 6869 1 
7414 6865 6867 1 
7415 6866 6870 2 
7416 6867 6872 1 
7417 6867 6873 1 
7418 6871 6869 2 
7419 6877 6884 1 
7420 6877 6885 1 
7421 6877 6886 1 
7422 6878 6877 1 
7423 6878 6882 1 
7424 6878 6883 1 
7425 6879 6598 1 
7426 6879 6878 1 
7427 6880 6879 1 
7428 6881 6879 1 
7429 6887 6807 1 
7430 6888 6892 1 
7431 6888 6887 1 
7432 6889 6887 2 
7433 6890 6888 1 
7434 6890 6900 1 
7435 6890 6901 1 
7436 6890 6893 1 
7437 6891 6888 1 
7438 6891 6894 1 
7439 6891 6898 1 
7440 6891 6899 1 
7441 6892 6813 1 
7442 6893 6894 1 
7443 6893 6895 1 
7444 6893 6897 1 
7445 6894 6549 1 
7446 6895 6548 1 
7447 6896 6895 2 
7448 6902 6426 1 
7449 6902 6905 1 
7450 6902 6906 1 
7451 6903 6477 1 
7452 6903 6902 1 
7453 6903 6904 2 
7454 6908 6542 1 
7455 6908 6907 2 
7456 6909 6908 1 
7457 6910 6909 1 
7458 6910 6912 1 
7459 6911 6909 1 
7460 6911 6913 1 
7461 6914 6912 1 
7462 6914 6913 1 
7463 6914 6915 1 
7464 6916 6915 1 
7465 6917 6916 1 
7466 6918 6917 1 
7467 6918 6941 1 
7468 6918 6921 1 
7469 6919 6917 2 
7470 6920 6821 1 
7471 6920 6918 1 
7472 6920 6922 1 
7473 6921 6939 1 
7474 6921 6940 1 
7475 6921 6923 1 
7476 6922 6937 1 
7477 6922 6938 1 
7478 6922 6923 1 
7479 6923 6925 1 
7480 6924 6923 1 
7481 6924 6497 1 
7482 6924 6926 1 
7483 6925 6496 1 
7484 6925 6927 2 
7485 6926 6935 1 
7486 6926 6936 1 
7487 6926 6928 1 
7488 6928 6933 1 
7489 6928 6934 1 
7490 6929 6928 1 
7491 6929 6932 1 
7492 6930 6929 1 
7493 6931 6929 1 
7494 6942 6915 1 
7495 6943 6915 1 
7496 6944 6913 1 
7497 6945 6912 1 
7498 6946 6911 1 
7499 6947 6910 1 
7500 6948 6916 1 
7501 6950 6670 1 
7502 6950 6949 1 
7503 6950 6953 1 
7504 6951 6949 2 
7505 6952 6950 1 
7506 6954 6738 1 
7507 6955 6954 1 
7508 6955 6958 1 
7509 6956 6955 1 
7510 6956 6967 1 
7511 6956 6968 1 
7512 6956 6959 1 
7513 6957 6955 1 
7514 6957 6960 1 
7515 6957 6965 1 
7516 6957 6966 1 
7517 6958 6737 1 
7518 6958 6961 2 
7519 6959 6960 1 
7520 6959 6962 1 
7521 6959 6964 1 
7522 6960 6599 1 
7523 6962 6598 1 
7524 6963 6962 2 
7525 6969 6977 1 
7526 6969 6978 1 
7527 6969 6976 1 
7528 6970 6969 1 
7529 6970 6974 1 
7530 6970 6975 1 
7531 6971 6970 1 
7532 6971 6973 1 
7533 6972 6971 1 
7534 6979 6987 1 
7535 6979 6988 1 
7536 6979 6986 1 
7537 6980 6979 1 
7538 6980 6981 1 
7539 6980 6984 1 
7540 6980 6985 1 
7541 6981 6868 1 
7542 6982 6981 1 
7543 6983 6981 1 
7544 6989 7002 1 
7545 6989 6949 1 
7546 6990 6989 1 
7547 6990 6999 1 
7548 6990 7000 1 
7549 6990 6991 1 
7550 6991 6998 1 
7551 6991 6997 1 
7552 6992 6991 1 
7553 6992 6996 1 
7554 6993 6868 1 
7555 6993 6992 1 
7556 6994 6992 1 
7557 6994 6869 1 
7558 6994 7001 1 
7559 6995 6993 2 
7560 7003 6499 1 
7561 7003 7011 1 
7562 7003 7012 1 
7563 7003 7004 1 
7564 7004 7009 1 
7565 7004 7010 1 
7566 7005 7004 1 
7567 7006 7005 1 
7568 7007 7005 1 
7569 7008 7005 1 
7570 7013 7026 1 
7571 7013 7015 1 
7572 7013 7016 1 
7573 7014 6784 1 
7574 7014 7013 1 
7575 7014 7017 1 
7576 7015 7018 1 
7577 7015 7024 1 
7578 7015 7025 1 
7579 7016 6779 1 
7580 7016 7019 2 
7581 7017 7022 1 
7582 7017 7023 1 
7583 7017 7018 1 
7584 7020 7018 1 
7585 7020 7046 1 
7586 7020 7027 1 
7587 7021 7018 1 
7588 7028 7036 1 
7589 7028 7037 1 
7590 7029 6809 1 
7591 7029 7028 1 
7592 7029 7034 1 
7593 7029 7035 1 
7594 7030 7028 1 
7595 7030 7033 1 
7596 7031 7030 1 
7597 7032 7030 1 
7598 7039 7038 2 
7599 7039 7040 1 
7600 7040 7042 1 
7601 7040 7043 1 
7602 7041 7040 1 
7603 7041 7051 1 
7604 7041 7052 1 
7605 7041 7044 1 
7606 7042 7049 1 
7607 7042 7050 1 
7608 7043 6524 1 
7609 7044 7048 1 
7610 7045 7042 1 
7611 7045 7044 1 
7612 7046 7044 1 
7613 7046 7047 2 
7614 7053 7060 1 
7615 7053 7061 1 
7616 7053 7062 1 
7617 7054 7053 1 
7618 7054 7055 1 
7619 7054 7058 1 
7620 7054 7059 1 
7621 7055 6512 1 
7622 7056 7055 1 
7623 7057 7055 1 
7624 7063 7070 1 
7625 7063 7071 1 
7626 7063 7072 1 
7627 7064 7063 1 
7628 7064 7069 1 
7629 7064 7068 1 
7630 7065 7492 1 
7631 7065 7064 1 
7632 7066 7065 1 
7633 7067 7065 1 
7634 7074 7073 1 
7635 7074 7076 1 
7636 7074 7077 1 
7637 7074 7078 1 
7638 7075 7073 2 
7639 7076 7079 1 
7640 7076 7086 1 
7641 7076 7087 1 
7642 7077 7080 1 
7643 7077 7084 1 
7644 7077 7085 1 
7645 7079 7083 1 
7646 7080 7079 1 
7647 7080 7335 1 
7648 7081 7079 1 
7649 7081 7082 2 
7650 7081 7336 1 
7651 7089 7088 1 
7652 7089 7208 1 
7653 7090 7088 2 
7654 7091 7089 1 
7655 7092 7089 1 
7656 7093 7347 1 
7657 7093 7101 1 
7658 7093 7102 1 
7659 7094 7093 1 
7660 7094 7095 1 
7661 7094 7099 1 
7662 7094 7100 1 
7663 7095 7097 1 
7664 7095 7098 1 
7665 7096 7095 1 
7666 7103 7111 1 
7667 7103 7112 1 
7668 7103 7105 1 
7669 7104 7078 1 
7670 7104 7103 1 
7671 7104 7109 1 
7672 7104 7110 1 
7673 7105 7107 1 
7674 7105 7108 1 
7675 7106 7105 1 
7676 7113 7120 1 
7677 7113 7121 1 
7678 7113 7122 1 
7679 7114 7113 1 
7680 7114 7115 1 
7681 7114 7118 1 
7682 7114 7119 1 
7683 7115 7365 1 
7684 7115 7117 1 
7685 7116 7115 1 
7686 7123 7136 1 
7687 7123 7124 1 
7688 7123 7125 1 
7689 7123 7126 1 
7690 7124 7127 1 
7691 7125 7134 1 
7692 7125 7135 1 
7693 7125 7128 1 
7694 7127 7132 1 
7695 7127 7133 1 
7696 7128 7127 1 
7697 7128 7131 1 
7698 7129 7126 2 
7699 7130 7128 1 
7700 7130 7510 1 
7701 7130 7137 1 
7702 7138 7140 2 
7703 7138 7141 1 
7704 7139 7138 1 
7705 7139 7142 1 
7706 7139 7143 1 
7707 7139 7178 1 
7708 7141 7179 1 
7709 7141 7144 1 
7710 7142 7145 1 
7711 7143 7176 1 
7712 7143 7177 1 
7713 7143 7146 1 
7714 7144 7174 1 
7715 7144 7175 1 
7716 7144 7147 1 
7717 7145 7172 1 
7718 7145 7173 1 
7719 7146 7145 1 
7720 7147 7150 1 
7721 7147 7151 1 
7722 7148 7146 1 
7723 7148 7152 1 
7724 7149 7146 1 
7725 7149 7153 2 
7726 7150 7154 1 
7727 7150 7171 1 
7728 7151 7155 1 
7729 7151 7170 1 
7730 7152 7156 1 
7731 7152 7168 1 
7732 7152 7169 1 
7733 7154 7167 1 
7734 7154 7157 1 
7735 7155 7166 1 
7736 7156 7164 1 
7737 7156 7165 1 
7738 7157 7155 1 
7739 7158 7156 1 
7740 7158 7161 1 
7741 7158 7162 1 
7742 7158 7163 1 
7743 7159 7157 1 
7744 7159 7661 1 
7745 7159 7160 2 
7746 7181 7126 1 
7747 7181 7180 1 
7748 7181 7182 1 
7749 7182 7185 1 
7750 7183 7182 1 
7751 7183 7194 1 
7752 7183 7195 1 
7753 7183 7186 1 
7754 7184 7182 1 
7755 7184 7192 1 
7756 7184 7193 1 
7757 7184 7187 1 
7758 7185 7124 1 
7759 7185 7188 2 
7760 7186 7187 1 
7761 7186 7189 1 
7762 7186 7191 1 
7763 7187 7204 1 
7764 7189 7208 1 
7765 7190 7189 2 
7766 7196 7210 1 
7767 7196 7201 1 
7768 7196 7202 1 
7769 7197 7196 1 
7770 7197 7198 1 
7771 7197 7199 1 
7772 7197 7200 1 
7773 7203 7204 2 
7774 7205 7204 1 
7775 7205 7207 1 
7776 7205 7208 1 
7777 7206 7205 1 
7778 7206 7216 1 
7779 7206 7217 1 
7780 7206 7209 1 
7781 7207 7214 1 
7782 7207 7215 1 
7783 7207 7210 1 
7784 7209 7213 1 
7785 7209 7211 1 
7786 7210 7209 1 
7787 7212 7211 2 
7788 7218 7220 1 
7789 7218 7230 1 
7790 7218 7231 1 
7791 7219 7218 1 
7792 7219 7229 1 
7793 7219 7221 1 
7794 7219 7222 1 
7795 7220 7475 1 
7796 7220 7223 1 
7797 7221 7223 1 
7798 7221 7227 1 
7799 7221 7228 1 
7800 7222 7293 1 
7801 7222 7232 1 
7802 7223 7226 1 
7803 7224 7474 1 
7804 7224 7223 1 
7805 7224 7225 2 
7806 7233 7235 1 
7807 7233 7246 1 
7808 7233 7247 1 
7809 7233 7234 1 
7810 7234 7245 1 
7811 7234 7236 1 
7812 7234 7237 1 
7813 7235 7238 1 
7814 7235 7239 1 
7815 7235 7240 1 
7816 7236 7416 1 
7817 7237 7415 1 
7818 7237 7241 2 
7819 7238 7236 1 
7820 7238 7244 1 
7821 7238 7243 1 
7822 7239 7242 2 
7823 7249 7248 1 
7824 7249 7299 1 
7825 7249 7251 1 
7826 7249 7252 1 
7827 7250 7248 2 
7828 7253 7266 1 
7829 7253 7248 1 
7830 7254 7253 1 
7831 7254 7264 1 
7832 7254 7263 1 
7833 7255 7254 1 
7834 7255 7256 1 
7835 7255 7261 1 
7836 7255 7262 1 
7837 7256 7258 1 
7838 7256 7260 1 
7839 7257 7365 1 
7840 7257 7256 1 
7841 7257 7259 2 
7842 7258 7366 1 
7843 7258 7265 1 
7844 7267 7452 1 
7845 7267 7275 1 
7846 7267 7276 1 
7847 7268 7267 1 
7848 7268 7274 1 
7849 7268 7273 1 
7850 7269 7268 1 
7851 7269 7271 1 
7852 7269 7272 1 
7853 7270 7269 1 
7854 7277 7290 1 
7855 7277 7280 1 
7856 7278 7522 1 
7857 7278 7277 1 
7858 7278 7281 1 
7859 7279 7277 1 
7860 7279 7288 1 
7861 7279 7289 1 
7862 7279 7282 1 
7863 7280 7517 1 
7864 7281 7286 1 
7865 7281 7287 1 
7866 7282 7281 1 
7867 7282 7285 1 
7868 7283 7280 2 
7869 7284 7282 1 
7870 7284 7211 1 
7871 7284 7291 1 
7872 7293 7292 2 
7873 7294 7293 1 
7874 7294 7296 1 
7875 7294 7306 1 
7876 7295 7294 1 
7877 7295 7297 1 
7878 7296 7298 1 
7879 7296 7304 1 
7880 7296 7305 1 
7881 7297 7298 1 
7882 7297 7302 1 
7883 7297 7303 1 
7884 7298 7300 1 
7885 7299 7298 1 
7886 7301 7300 2 
7887 7307 7311 1 
7888 7307 7312 1 
7889 7307 7313 1 
7890 7308 7307 1 
7891 7308 7295 1 
7892 7308 7310 1 
7893 7309 7308 1 
7894 7314 7327 1 
7895 7314 7328 1 
7896 7314 7315 1 
7897 7314 7316 1 
7898 7316 7348 1 
7899 7316 7320 1 
7900 7317 7315 1 
7901 7317 7325 1 
7902 7317 7326 1 
7903 7317 7320 1 
7904 7318 7315 1 
7905 7318 7362 1 
7906 7318 7321 2 
7907 7319 7315 1 
7908 7319 7363 1 
7909 7319 7392 1 
7910 7320 7322 1 
7911 7320 7324 1 
7912 7322 7347 1 
7913 7323 7322 2 
7914 7329 7331 1 
7915 7329 7342 1 
7916 7329 7343 1 
7917 7329 7330 1 
7918 7330 7333 1 
7919 7330 7341 1 
7920 7330 7332 1 
7921 7331 7336 1 
7922 7331 7334 1 
7923 7331 7335 1 
7924 7332 7537 1 
7925 7332 7334 1 
7926 7333 7337 2 
7927 7333 7533 1 
7928 7334 7339 1 
7929 7334 7340 1 
7930 7335 7338 2 
7931 7336 7564 1 
7932 7344 7347 1 
7933 7344 7348 1 
7934 7344 7346 1 
7935 7345 7344 1 
7936 7345 7349 1 
7937 7345 7357 1 
7938 7345 7358 1 
7939 7346 7350 1 
7940 7346 7355 1 
7941 7346 7356 1 
7942 7348 7351 2 
7943 7349 7350 1 
7944 7349 7352 1 
7945 7349 7354 1 
7946 7353 7352 2 
7947 7359 7372 1 
7948 7359 7373 1 
7949 7359 7361 1 
7950 7360 7359 1 
7951 7360 7371 1 
7952 7360 7362 1 
7953 7360 7363 1 
7954 7361 7364 1 
7955 7361 7365 1 
7956 7361 7366 1 
7957 7362 7364 1 
7958 7363 7367 2 
7959 7364 7369 1 
7960 7364 7370 1 
7961 7368 7366 2 
7962 7374 7375 1 
7963 7374 7379 1 
7964 7374 7380 1 
7965 7375 7377 1 
7966 7375 7378 1 
7967 7376 7375 1 
7968 7381 7388 1 
7969 7381 7389 1 
7970 7381 7390 1 
7971 7382 7381 1 
7972 7382 7386 1 
7973 7382 7387 1 
7974 7382 7383 1 
7975 7383 7533 1 
7976 7383 7385 1 
7977 7384 7383 1 
7978 7391 7399 1 
7979 7391 7400 1 
7980 7391 7392 1 
7981 7391 7393 1 
7982 7392 7398 1 
7983 7392 7397 1 
7984 7393 7394 1 
7985 7393 7395 1 
7986 7393 7396 1 
7987 7401 7402 1 
7988 7401 7403 1 
7989 7402 7415 1 
7990 7404 7403 1 
7991 7405 7403 1 
7992 7406 7403 1 
7993 7407 7402 1 
7994 7408 7402 1 
7995 7409 7401 1 
7996 7410 7401 1 
7997 7411 7413 1 
7998 7411 7424 1 
7999 7411 7425 1 
8000 7412 7411 1 
8001 7412 7414 1 
8002 7412 7415 1 
8003 7412 7416 1 
8004 7414 7422 1 
8005 7414 7423 1 
8006 7416 7418 2 
8007 7417 7413 1 
8008 7417 7414 1 
8009 7417 7419 1 
8010 7417 7421 1 
8011 7419 7420 2 
8012 7426 7433 1 
8013 7426 7434 1 
8014 7426 7435 1 
8015 7427 7426 1 
8016 7427 7428 1 
8017 7427 7431 1 
8018 7427 7432 1 
8019 7428 7694 1 
8020 7429 7428 1 
8021 7430 7428 1 
8022 7436 7443 1 
8023 7436 7444 1 
8024 7436 7445 1 
8025 7437 7436 1 
8026 7437 7442 1 
8027 7437 7441 1 
8028 7438 7617 1 
8029 7438 7437 1 
8030 7438 7440 1 
8031 7439 7438 1 
8032 7447 7446 1 
8033 7447 7449 1 
8034 7447 7450 1 
8035 7448 7446 1 
8036 7451 7448 1 
8037 7451 7449 1 
8038 7451 7457 1 
8039 7451 7456 1 
8040 7452 7352 1 
8041 7452 7448 1 
8042 7453 7350 1 
8043 7453 7448 1 
8044 7453 7455 2 
8045 7454 7450 2 
8046 7458 7447 1 
8047 7459 7446 1 
8048 7460 7446 1 
8049 7461 7468 1 
8050 7461 7469 1 
8051 7461 7470 1 
8052 7461 7462 1 
8053 7462 7467 1 
8054 7462 7466 1 
8055 7463 7240 1 
8056 7463 7462 1 
8057 7463 7464 1 
8058 7463 7465 1 
8059 7471 7473 1 
8060 7471 7474 1 
8061 7471 7475 1 
8062 7472 7471 1 
8063 7472 7485 1 
8064 7472 7486 1 
8065 7472 7476 1 
8066 7473 7483 1 
8067 7473 7484 1 
8068 7474 7478 1 
8069 7475 7479 2 
8070 7476 7482 1 
8071 7476 7480 1 
8072 7477 7473 1 
8073 7477 7476 1 
8074 7477 7503 1 
8075 7480 7507 1 
8076 7481 7480 2 
8077 7487 7413 1 
8078 7487 7489 2 
8079 7488 7492 1 
8080 7488 7487 1 
8081 7488 7490 1 
8082 7488 7491 1 
8083 7490 7493 1 
8084 7490 7500 1 
8085 7490 7501 1 
8086 7491 7498 1 
8087 7491 7499 1 
8088 7491 7494 1 
8089 7492 7419 1 
8090 7493 7494 1 
8091 7493 7495 1 
8092 7493 7497 1 
8093 7494 7149 1 
8094 7495 7148 1 
8095 7496 7495 2 
8096 7502 7503 2 
8097 7504 7503 1 
8098 7504 7507 1 
8099 7504 7505 1 
8100 7504 7506 1 
8101 7505 7508 1 
8102 7505 7515 1 
8103 7505 7516 1 
8104 7506 7513 1 
8105 7506 7514 1 
8106 7506 7509 1 
8107 7508 7509 1 
8108 7508 7510 1 
8109 7508 7512 1 
8110 7509 7374 1 
8111 7510 7511 2 
8112 7517 7518 1 
8113 7517 7519 1 
8114 7518 7520 1 
8115 7518 7521 1 
8116 7518 7522 1 
8117 7520 7531 1 
8118 7520 7532 1 
8119 7520 7523 1 
8120 7521 7529 1 
8121 7521 7530 1 
8122 7521 7524 1 
8123 7522 7525 2 
8124 7523 7526 1 
8125 7523 7528 1 
8126 7523 7524 1 
8127 7524 7300 1 
8128 7526 7299 1 
8129 7526 7527 2 
8130 7533 7534 1 
8131 7534 7536 1 
8132 7534 7537 1 
8133 7535 7534 1 
8134 7535 7546 1 
8135 7535 7547 1 
8136 7535 7538 1 
8137 7536 7539 1 
8138 7536 7544 1 
8139 7536 7545 1 
8140 7537 7540 2 
8141 7538 7541 1 
8142 7538 7543 1 
8143 7539 7538 1 
8144 7542 7541 2 
8145 7548 7558 1 
8146 7548 7559 1 
8147 7548 7549 1 
8148 7548 7550 1 
8149 7549 7557 1 
8150 7550 7555 1 
8151 7550 7556 1 
8152 7551 7549 1 
8153 7551 7554 2 
8154 7551 7694 1 
8155 7552 7549 1 
8156 7552 7561 1 
8157 7552 7695 1 
8158 7553 7550 1 
8159 7553 7560 1 
8160 7562 7570 1 
8161 7562 7571 1 
8162 7562 7563 1 
8163 7562 7569 1 
8164 7563 7567 1 
8165 7563 7568 1 
8166 7564 7563 1 
8167 7564 7565 1 
8168 7564 7566 1 
8169 7573 7142 1 
8170 7573 7572 2 
8171 7573 7574 1 
8172 7574 7576 1 
8173 7575 7574 1 
8174 7575 7577 1 
8175 7575 7612 1 
8176 7576 7611 1 
8177 7577 7610 1 
8178 7578 7576 1 
8179 7578 7609 1 
8180 7579 7577 1 
8181 7579 7578 1 
8182 7580 7579 1 
8183 7580 7581 1 
8184 7580 7607 1 
8185 7580 7608 1 
8186 7581 7613 1 
8187 7582 7581 1 
8188 7582 7583 1 
8189 7582 7584 2 
8190 7583 7585 1 
8191 7583 7586 1 
8192 7583 7606 1 
8193 7585 7649 1 
8194 7586 7588 1 
8195 7586 7604 1 
8196 7586 7605 1 
8197 7587 7585 1 
8198 7587 7588 1 
8199 7587 7602 1 
8200 7587 7603 1 
8201 7588 7590 1 
8202 7589 7588 1 
8203 7589 7591 1 
8204 7589 7450 1 
8205 7590 7449 1 
8206 7591 7600 1 
8207 7591 7601 1 
8208 7592 7590 2 
8209 7593 7591 1 
8210 7593 7598 1 
8211 7593 7599 1 
8212 7594 7593 1 
8213 7594 7595 1 
8214 7594 7596 1 
8215 7594 7597 1 
8216 7614 7616 1 
8217 7614 7617 1 
8218 7614 7618 1 
8219 7615 7614 1 
8220 7615 7619 1 
8221 7615 7627 1 
8222 7615 7628 1 
8223 7616 7626 1 
8224 7616 7625 1 
8225 7617 7541 1 
8226 7618 7539 1 
8227 7618 7621 2 
8228 7619 7622 1 
8229 7619 7624 1 
8230 7620 7666 1 
8231 7620 7616 1 
8232 7620 7619 1 
8233 7622 7665 1 
8234 7622 7623 2 
8235 7629 7639 1 
8236 7629 7640 1 
8237 7629 7631 1 
8238 7630 7088 1 
8239 7630 7629 1 
8240 7630 7642 1 
8241 7631 7637 1 
8242 7631 7638 1 
8243 7632 7631 1 
8244 7632 7636 1 
8245 7632 7633 1 
8246 7632 7634 1 
8247 7633 7078 1 
8248 7633 7635 2 
8249 7634 7073 1 
8250 7634 7641 1 
8251 7643 7507 1 
8252 7643 7646 1 
8253 7643 7647 1 
8254 7644 7553 1 
8255 7644 7643 1 
8256 7644 7645 2 
8257 7648 7649 1 
8258 7648 7650 1 
8259 7648 7651 1 
8260 7649 7652 2 
8261 7650 7653 1 
8262 7651 7654 1 
8263 7651 7687 1 
8264 7653 7686 1 
8265 7654 7685 1 
8266 7655 7653 1 
8267 7655 7654 1 
8268 7655 7656 1 
8269 7656 7683 1 
8270 7656 7684 1 
8271 7657 7656 1 
8272 7658 7657 1 
8273 7659 7658 1 
8274 7659 7661 1 
8275 7659 7662 1 
8276 7659 7682 1 
8277 7660 7658 2 
8278 7661 7663 1 
8279 7662 7664 1 
8280 7662 7680 1 
8281 7662 7681 1 
8282 7663 7678 1 
8283 7663 7679 1 
8284 7664 7663 1 
8285 7664 7665 1 
8286 7664 7666 1 
8287 7665 7667 1 
8288 7666 7668 2 
8289 7667 7669 1 
8290 7667 7676 1 
8291 7667 7677 1 
8292 7669 7674 1 
8293 7669 7675 1 
8294 7670 7669 1 
8295 7670 7673 1 
8296 7670 7671 1 
8297 7670 7672 1 
8298 7688 7650 1 
8299 7689 7657 1 
8300 7690 7703 1 
8301 7690 7704 1 
8302 7690 7692 1 
8303 7691 7690 1 
8304 7691 7693 1 
8305 7691 7694 1 
8306 7691 7695 1 
8307 7692 7239 1 
8308 7692 7696 1 
8309 7693 7701 1 
8310 7693 7702 1 
8311 7693 7696 1 
8312 7695 7697 2 
8313 7696 7698 1 
8314 7696 7700 1 
8315 7698 7240 1 
8316 7699 7698 2 
@<TRIPOS>SUBSTRUCTURE
1 NIL_1 1 RESIDUE 1 A NIL 1
2 NIL_2 6 RESIDUE 1 A NIL 1
3 NIL_3 16 RESIDUE 1 A NIL 1
4 NIL_4 31 RESIDUE 1 A NIL 1
5 NIL_5 47 RESIDUE 1 A NIL 1
6 NIL_6 57 RESIDUE 1 A NIL 1
7 NIL_7 99 RESIDUE 1 A NIL 1
8 NIL_8 109 RESIDUE 1 A NIL 1
9 NIL_9 119 RESIDUE 1 A NIL 1
10 NIL_10 134 RESIDUE 1 A NIL 1
11 NIL_11 149 RESIDUE 1 A NIL 1
12 NIL_12 156 RESIDUE 1 A NIL 1
13 NIL_13 171 RESIDUE 1 A NIL 1
14 NIL_14 181 RESIDUE 1 A NIL 1
15 NIL_15 195 RESIDUE 1 A NIL 1
16 NIL_16 205 RESIDUE 1 A NIL 1
17 NIL_17 210 RESIDUE 1 A NIL 1
18 NIL_18 225 RESIDUE 1 A NIL 1
19 NIL_19 241 RESIDUE 1 A NIL 1
20 NIL_20 283 RESIDUE 1 A NIL 1
21 NIL_21 293 RESIDUE 1 A NIL 1
22 NIL_22 303 RESIDUE 1 A NIL 1
23 NIL_23 318 RESIDUE 1 A NIL 1
24 NIL_24 325 RESIDUE 1 A NIL 1
25 NIL_25 340 RESIDUE 1 A NIL 1
26 NIL_26 354 RESIDUE 1 A NIL 1
27 NIL_27 368 RESIDUE 1 A NIL 1
28 NIL_28 383 RESIDUE 1 A NIL 1
29 NIL_29 398 RESIDUE 1 A NIL 1
30 NIL_30 408 RESIDUE 1 A NIL 1
31 NIL_31 423 RESIDUE 1 A NIL 1
32 NIL_32 433 RESIDUE 1 A NIL 1
33 NIL_33 448 RESIDUE 1 A NIL 1
34 NIL_34 463 RESIDUE 1 A NIL 1
35 NIL_35 478 RESIDUE 1 A NIL 1
36 NIL_36 493 RESIDUE 1 A NIL 1
37 NIL_37 500 RESIDUE 1 A NIL 1
38 NIL_38 510 RESIDUE 1 A NIL 1
39 NIL_39 552 RESIDUE 1 A NIL 1
40 NIL_40 567 RESIDUE 1 A NIL 1
41 NIL_41 582 RESIDUE 1 A NIL 1
42 NIL_42 592 RESIDUE 1 A NIL 1
43 NIL_43 607 RESIDUE 1 A NIL 1
44 NIL_44 623 RESIDUE 1 A NIL 1
45 NIL_45 628 RESIDUE 1 A NIL 1
46 NIL_46 643 RESIDUE 1 B NIL 1
47 NIL_47 653 RESIDUE 1 B NIL 1
48 NIL_48 663 RESIDUE 1 B NIL 1
49 NIL_49 705 RESIDUE 1 B NIL 1
50 NIL_50 721 RESIDUE 1 B NIL 1
51 NIL_51 736 RESIDUE 1 B NIL 1
52 NIL_52 751 RESIDUE 1 B NIL 1
53 NIL_53 765 RESIDUE 1 B NIL 1
54 NIL_54 780 RESIDUE 1 B NIL 1
55 NIL_55 790 RESIDUE 1 B NIL 1
56 NIL_56 795 RESIDUE 1 B NIL 1
57 NIL_57 837 RESIDUE 1 B NIL 1
58 NIL_58 852 RESIDUE 1 B NIL 1
59 NIL_59 867 RESIDUE 1 B NIL 1
60 NIL_60 882 RESIDUE 1 B NIL 1
61 NIL_61 896 RESIDUE 1 B NIL 1
62 NIL_62 911 RESIDUE 1 B NIL 1
63 NIL_63 921 RESIDUE 1 B NIL 1
64 NIL_64 926 RESIDUE 1 B NIL 1
65 NIL_65 968 RESIDUE 1 B NIL 1
66 NIL_66 978 RESIDUE 1 B NIL 1
67 NIL_67 985 RESIDUE 1 B NIL 1
68 NIL_68 1000 RESIDUE 1 B NIL 1
69 NIL_69 1015 RESIDUE 1 B NIL 1
70 NIL_70 1030 RESIDUE 1 B NIL 1
71 NIL_71 1037 RESIDUE 1 B NIL 1
72 NIL_72 1047 RESIDUE 1 B NIL 1
73 NIL_73 1057 RESIDUE 1 B NIL 1
74 NIL_74 1067 RESIDUE 1 B NIL 1
75 NIL_75 1082 RESIDUE 1 B NIL 1
76 NIL_76 1097 RESIDUE 1 B NIL 1
77 NIL_77 1104 RESIDUE 1 B NIL 1
78 NIL_78 1114 RESIDUE 1 B NIL 1
79 NIL_79 1129 RESIDUE 1 B NIL 1
80 NIL_80 1144 RESIDUE 1 B NIL 1
81 NIL_81 1154 RESIDUE 1 B NIL 1
82 NIL_82 1170 RESIDUE 1 B NIL 1
83 NIL_83 1185 RESIDUE 1 B NIL 1
84 NIL_84 1200 RESIDUE 1 B NIL 1
85 NIL_85 1205 RESIDUE 1 B NIL 1
86 NIL_86 1220 RESIDUE 1 B NIL 1
87 NIL_87 1236 RESIDUE 1 B NIL 1
88 NIL_88 1250 RESIDUE 1 B NIL 1
89 NIL_89 1260 RESIDUE 1 B NIL 1
90 NIL_90 1275 RESIDUE 1 B NIL 1
91 NIL_91 1285 RESIDUE 1 C NIL 1
92 NIL_92 1300 RESIDUE 1 C NIL 1
93 NIL_93 1315 RESIDUE 1 C NIL 1
94 NIL_94 1325 RESIDUE 1 C NIL 1
95 NIL_95 1340 RESIDUE 1 C NIL 1
96 NIL_96 1382 RESIDUE 1 C NIL 1
97 NIL_97 1392 RESIDUE 1 C NIL 1
98 NIL_98 1402 RESIDUE 1 C NIL 1
99 NIL_99 1417 RESIDUE 1 C NIL 1
100 NIL_100 1432 RESIDUE 1 C NIL 1
101 NIL_101 1447 RESIDUE 1 C NIL 1
102 NIL_102 1462 RESIDUE 1 C NIL 1
103 NIL_103 1477 RESIDUE 1 C NIL 1
104 NIL_104 1519 RESIDUE 1 C NIL 1
105 NIL_105 1535 RESIDUE 1 C NIL 1
106 NIL_106 1551 RESIDUE 1 C NIL 1
107 NIL_107 1566 RESIDUE 1 C NIL 1
108 NIL_108 1576 RESIDUE 1 C NIL 1
109 NIL_109 1586 RESIDUE 1 C NIL 1
110 NIL_110 1593 RESIDUE 1 C NIL 1
111 NIL_111 1608 RESIDUE 1 C NIL 1
112 NIL_112 1615 RESIDUE 1 C NIL 1
113 NIL_113 1622 RESIDUE 1 C NIL 1
114 NIL_114 1627 RESIDUE 1 C NIL 1
115 NIL_115 1637 RESIDUE 1 C NIL 1
116 NIL_116 1647 RESIDUE 1 C NIL 1
117 NIL_117 1662 RESIDUE 1 C NIL 1
118 NIL_118 1672 RESIDUE 1 C NIL 1
119 NIL_119 1682 RESIDUE 1 C NIL 1
120 NIL_120 1697 RESIDUE 1 C NIL 1
121 NIL_121 1702 RESIDUE 1 C NIL 1
122 NIL_122 1717 RESIDUE 1 C NIL 1
123 NIL_123 1732 RESIDUE 1 C NIL 1
124 NIL_124 1747 RESIDUE 1 C NIL 1
125 NIL_125 1757 RESIDUE 1 C NIL 1
126 NIL_126 1772 RESIDUE 1 C NIL 1
127 NIL_127 1782 RESIDUE 1 C NIL 1
128 NIL_128 1797 RESIDUE 1 C NIL 1
129 NIL_129 1839 RESIDUE 1 C NIL 1
130 NIL_130 1853 RESIDUE 1 C NIL 1
131 NIL_131 1867 RESIDUE 1 C NIL 1
132 NIL_132 1882 RESIDUE 1 C NIL 1
133 NIL_133 1892 RESIDUE 1 C NIL 1
134 NIL_134 1906 RESIDUE 1 C NIL 1
135 NIL_135 1911 RESIDUE 1 C NIL 1
136 NIL_136 1927 RESIDUE 1 D NIL 1
137 NIL_137 1937 RESIDUE 1 D NIL 1
138 NIL_138 1952 RESIDUE 1 D NIL 1
139 NIL_139 1959 RESIDUE 1 D NIL 1
140 NIL_140 1964 RESIDUE 1 D NIL 1
141 NIL_141 1979 RESIDUE 1 D NIL 1
142 NIL_142 1995 RESIDUE 1 D NIL 1
143 NIL_143 2010 RESIDUE 1 D NIL 1
144 NIL_144 2020 RESIDUE 1 D NIL 1
145 NIL_145 2034 RESIDUE 1 D NIL 1
146 NIL_146 2044 RESIDUE 1 D NIL 1
147 NIL_147 2059 RESIDUE 1 D NIL 1
148 NIL_148 2075 RESIDUE 1 D NIL 1
149 NIL_149 2082 RESIDUE 1 D NIL 1
150 NIL_150 2098 RESIDUE 1 D NIL 1
151 NIL_151 2105 RESIDUE 1 D NIL 1
152 NIL_152 2115 RESIDUE 1 D NIL 1
153 NIL_153 2129 RESIDUE 1 D NIL 1
154 NIL_154 2143 RESIDUE 1 D NIL 1
155 NIL_155 2153 RESIDUE 1 D NIL 1
156 NIL_156 2168 RESIDUE 1 D NIL 1
157 NIL_157 2183 RESIDUE 1 D NIL 1
158 NIL_158 2198 RESIDUE 1 D NIL 1
159 NIL_159 2213 RESIDUE 1 D NIL 1
160 NIL_160 2223 RESIDUE 1 D NIL 1
161 NIL_161 2265 RESIDUE 1 D NIL 1
162 NIL_162 2307 RESIDUE 1 D NIL 1
163 NIL_163 2312 RESIDUE 1 D NIL 1
164 NIL_164 2327 RESIDUE 1 D NIL 1
165 NIL_165 2342 RESIDUE 1 D NIL 1
166 NIL_166 2352 RESIDUE 1 D NIL 1
167 NIL_167 2362 RESIDUE 1 D NIL 1
168 NIL_168 2377 RESIDUE 1 D NIL 1
169 NIL_169 2392 RESIDUE 1 D NIL 1
170 NIL_170 2407 RESIDUE 1 D NIL 1
171 NIL_171 2422 RESIDUE 1 D NIL 1
172 NIL_172 2432 RESIDUE 1 D NIL 1
173 NIL_173 2447 RESIDUE 1 D NIL 1
174 NIL_174 2457 RESIDUE 1 D NIL 1
175 NIL_175 2467 RESIDUE 1 D NIL 1
176 NIL_176 2509 RESIDUE 1 D NIL 1
177 NIL_177 2524 RESIDUE 1 D NIL 1
178 NIL_178 2534 RESIDUE 1 D NIL 1
179 NIL_179 2549 RESIDUE 1 D NIL 1
180 NIL_180 2564 RESIDUE 1 D NIL 1
181 NIL_181 2569 RESIDUE 1 E NIL 1
182 NIL_182 2579 RESIDUE 1 E NIL 1
183 NIL_183 2594 RESIDUE 1 E NIL 1
184 NIL_184 2608 RESIDUE 1 E NIL 1
185 NIL_185 2618 RESIDUE 1 E NIL 1
186 NIL_186 2633 RESIDUE 1 E NIL 1
187 NIL_187 2647 RESIDUE 1 E NIL 1
188 NIL_188 2657 RESIDUE 1 E NIL 1
189 NIL_189 2667 RESIDUE 1 E NIL 1
190 NIL_190 2677 RESIDUE 1 E NIL 1
191 NIL_191 2691 RESIDUE 1 E NIL 1
192 NIL_192 2701 RESIDUE 1 E NIL 1
193 NIL_193 2711 RESIDUE 1 E NIL 1
194 NIL_194 2726 RESIDUE 1 E NIL 1
195 NIL_195 2768 RESIDUE 1 E NIL 1
196 NIL_196 2778 RESIDUE 1 E NIL 1
197 NIL_197 2793 RESIDUE 1 E NIL 1
198 NIL_198 2835 RESIDUE 1 E NIL 1
199 NIL_199 2845 RESIDUE 1 E NIL 1
200 NIL_200 2860 RESIDUE 1 E NIL 1
201 NIL_201 2867 RESIDUE 1 E NIL 1
202 NIL_202 2874 RESIDUE 1 E NIL 1
203 NIL_203 2890 RESIDUE 1 E NIL 1
204 NIL_204 2895 RESIDUE 1 E NIL 1
205 NIL_205 2911 RESIDUE 1 E NIL 1
206 NIL_206 2916 RESIDUE 1 E NIL 1
207 NIL_207 2931 RESIDUE 1 E NIL 1
208 NIL_208 2946 RESIDUE 1 E NIL 1
209 NIL_209 2956 RESIDUE 1 E NIL 1
210 NIL_210 2961 RESIDUE 1 E NIL 1
211 NIL_211 2977 RESIDUE 1 E NIL 1
212 NIL_212 2992 RESIDUE 1 E NIL 1
213 NIL_213 3007 RESIDUE 1 E NIL 1
214 NIL_214 3049 RESIDUE 1 E NIL 1
215 NIL_215 3064 RESIDUE 1 E NIL 1
216 NIL_216 3079 RESIDUE 1 E NIL 1
217 NIL_217 3089 RESIDUE 1 E NIL 1
218 NIL_218 3099 RESIDUE 1 E NIL 1
219 NIL_219 3106 RESIDUE 1 E NIL 1
220 NIL_220 3121 RESIDUE 1 E NIL 1
221 NIL_221 3136 RESIDUE 1 E NIL 1
222 NIL_222 3151 RESIDUE 1 E NIL 1
223 NIL_223 3166 RESIDUE 1 E NIL 1
224 NIL_224 3181 RESIDUE 1 E NIL 1
225 NIL_225 3196 RESIDUE 1 E NIL 1
226 NIL_226 3211 RESIDUE 1 F NIL 1
227 NIL_227 3226 RESIDUE 1 F NIL 1
228 NIL_228 3268 RESIDUE 1 F NIL 1
229 NIL_229 3278 RESIDUE 1 F NIL 1
230 NIL_230 3320 RESIDUE 1 F NIL 1
231 NIL_231 3335 RESIDUE 1 F NIL 1
232 NIL_232 3349 RESIDUE 1 F NIL 1
233 NIL_233 3364 RESIDUE 1 F NIL 1
234 NIL_234 3379 RESIDUE 1 F NIL 1
235 NIL_235 3389 RESIDUE 1 F NIL 1
236 NIL_236 3396 RESIDUE 1 F NIL 1
237 NIL_237 3406 RESIDUE 1 F NIL 1
238 NIL_238 3421 RESIDUE 1 F NIL 1
239 NIL_239 3437 RESIDUE 1 F NIL 1
240 NIL_240 3452 RESIDUE 1 F NIL 1
241 NIL_241 3494 RESIDUE 1 F NIL 1
242 NIL_242 3504 RESIDUE 1 F NIL 1
243 NIL_243 3514 RESIDUE 1 F NIL 1
244 NIL_244 3519 RESIDUE 1 F NIL 1
245 NIL_245 3534 RESIDUE 1 F NIL 1
246 NIL_246 3549 RESIDUE 1 F NIL 1
247 NIL_247 3559 RESIDUE 1 F NIL 1
248 NIL_248 3574 RESIDUE 1 F NIL 1
249 NIL_249 3579 RESIDUE 1 F NIL 1
250 NIL_250 3589 RESIDUE 1 F NIL 1
251 NIL_251 3604 RESIDUE 1 F NIL 1
252 NIL_252 3618 RESIDUE 1 F NIL 1
253 NIL_253 3625 RESIDUE 1 F NIL 1
254 NIL_254 3641 RESIDUE 1 F NIL 1
255 NIL_255 3648 RESIDUE 1 F NIL 1
256 NIL_256 3663 RESIDUE 1 F NIL 1
257 NIL_257 3678 RESIDUE 1 F NIL 1
258 NIL_258 3692 RESIDUE 1 F NIL 1
259 NIL_259 3707 RESIDUE 1 F NIL 1
260 NIL_260 3717 RESIDUE 1 F NIL 1
261 NIL_261 3732 RESIDUE 1 F NIL 1
262 NIL_262 3742 RESIDUE 1 F NIL 1
263 NIL_263 3752 RESIDUE 1 F NIL 1
264 NIL_264 3757 RESIDUE 1 F NIL 1
265 NIL_265 3772 RESIDUE 1 F NIL 1
266 NIL_266 3782 RESIDUE 1 F NIL 1
267 NIL_267 3797 RESIDUE 1 F NIL 1
268 NIL_268 3812 RESIDUE 1 F NIL 1
269 NIL_269 3828 RESIDUE 1 F NIL 1
270 NIL_270 3838 RESIDUE 1 F NIL 1
271 NIL_271 3853 RESIDUE 1 G NIL 1
272 NIL_272 3868 RESIDUE 1 G NIL 1
273 NIL_273 3883 RESIDUE 1 G NIL 1
274 NIL_274 3888 RESIDUE 1 G NIL 1
275 NIL_275 3903 RESIDUE 1 G NIL 1
276 NIL_276 3918 RESIDUE 1 G NIL 1
277 NIL_277 3925 RESIDUE 1 G NIL 1
278 NIL_278 3941 RESIDUE 1 G NIL 1
279 NIL_279 3956 RESIDUE 1 G NIL 1
280 NIL_280 3971 RESIDUE 1 G NIL 1
281 NIL_281 3987 RESIDUE 1 G NIL 1
282 NIL_282 3994 RESIDUE 1 G NIL 1
283 NIL_283 4001 RESIDUE 1 G NIL 1
284 NIL_284 4016 RESIDUE 1 G NIL 1
285 NIL_285 4032 RESIDUE 1 G NIL 1
286 NIL_286 4042 RESIDUE 1 G NIL 1
287 NIL_287 4057 RESIDUE 1 G NIL 1
288 NIL_288 4072 RESIDUE 1 G NIL 1
289 NIL_289 4087 RESIDUE 1 G NIL 1
290 NIL_290 4102 RESIDUE 1 G NIL 1
291 NIL_291 4112 RESIDUE 1 G NIL 1
292 NIL_292 4127 RESIDUE 1 G NIL 1
293 NIL_293 4142 RESIDUE 1 G NIL 1
294 NIL_294 4152 RESIDUE 1 G NIL 1
295 NIL_295 4162 RESIDUE 1 G NIL 1
296 NIL_296 4177 RESIDUE 1 G NIL 1
297 NIL_297 4187 RESIDUE 1 G NIL 1
298 NIL_298 4202 RESIDUE 1 G NIL 1
299 NIL_299 4212 RESIDUE 1 G NIL 1
300 NIL_300 4227 RESIDUE 1 G NIL 1
301 NIL_301 4242 RESIDUE 1 G NIL 1
302 NIL_302 4247 RESIDUE 1 G NIL 1
303 NIL_303 4261 RESIDUE 1 G NIL 1
304 NIL_304 4276 RESIDUE 1 G NIL 1
305 NIL_305 4286 RESIDUE 1 G NIL 1
306 NIL_306 4296 RESIDUE 1 G NIL 1
307 NIL_307 4310 RESIDUE 1 G NIL 1
308 NIL_308 4320 RESIDUE 1 G NIL 1
309 NIL_309 4362 RESIDUE 1 G NIL 1
310 NIL_310 4372 RESIDUE 1 G NIL 1
311 NIL_311 4386 RESIDUE 1 G NIL 1
312 NIL_312 4396 RESIDUE 1 G NIL 1
313 NIL_313 4438 RESIDUE 1 G NIL 1
314 NIL_314 4443 RESIDUE 1 G NIL 1
315 NIL_315 4453 RESIDUE 1 G NIL 1
316 NIL_316 4495 RESIDUE 1 H NIL 1
317 NIL_317 4510 RESIDUE 1 H NIL 1
318 NIL_318 4520 RESIDUE 1 H NIL 1
319 NIL_319 4535 RESIDUE 1 H NIL 1
320 NIL_320 4550 RESIDUE 1 H NIL 1
321 NIL_321 4566 RESIDUE 1 H NIL 1
322 NIL_322 4573 RESIDUE 1 H NIL 1
323 NIL_323 4588 RESIDUE 1 H NIL 1
324 NIL_324 4603 RESIDUE 1 H NIL 1
325 NIL_325 4613 RESIDUE 1 H NIL 1
326 NIL_326 4629 RESIDUE 1 H NIL 1
327 NIL_327 4639 RESIDUE 1 H NIL 1
328 NIL_328 4646 RESIDUE 1 H NIL 1
329 NIL_329 4661 RESIDUE 1 H NIL 1
330 NIL_330 4676 RESIDUE 1 H NIL 1
331 NIL_331 4690 RESIDUE 1 H NIL 1
332 NIL_332 4705 RESIDUE 1 H NIL 1
333 NIL_333 4715 RESIDUE 1 H NIL 1
334 NIL_334 4730 RESIDUE 1 H NIL 1
335 NIL_335 4740 RESIDUE 1 H NIL 1
336 NIL_336 4755 RESIDUE 1 H NIL 1
337 NIL_337 4797 RESIDUE 1 H NIL 1
338 NIL_338 4811 RESIDUE 1 H NIL 1
339 NIL_339 4825 RESIDUE 1 H NIL 1
340 NIL_340 4840 RESIDUE 1 H NIL 1
341 NIL_341 4882 RESIDUE 1 H NIL 1
342 NIL_342 4887 RESIDUE 1 H NIL 1
343 NIL_343 4894 RESIDUE 1 H NIL 1
344 NIL_344 4936 RESIDUE 1 H NIL 1
345 NIL_345 4951 RESIDUE 1 H NIL 1
346 NIL_346 4961 RESIDUE 1 H NIL 1
347 NIL_347 4976 RESIDUE 1 H NIL 1
348 NIL_348 4981 RESIDUE 1 H NIL 1
349 NIL_349 4991 RESIDUE 1 H NIL 1
350 NIL_350 5006 RESIDUE 1 H NIL 1
351 NIL_351 5016 RESIDUE 1 H NIL 1
352 NIL_352 5032 RESIDUE 1 H NIL 1
353 NIL_353 5042 RESIDUE 1 H NIL 1
354 NIL_354 5052 RESIDUE 1 H NIL 1
355 NIL_355 5062 RESIDUE 1 H NIL 1
356 NIL_356 5077 RESIDUE 1 H NIL 1
357 NIL_357 5092 RESIDUE 1 H NIL 1
358 NIL_358 5102 RESIDUE 1 H NIL 1
359 NIL_359 5117 RESIDUE 1 H NIL 1
360 NIL_360 5122 RESIDUE 1 H NIL 1
361 NIL_361 5137 RESIDUE 1 I NIL 1
362 NIL_362 5144 RESIDUE 1 I NIL 1
363 NIL_363 5159 RESIDUE 1 I NIL 1
364 NIL_364 5174 RESIDUE 1 I NIL 1
365 NIL_365 5184 RESIDUE 1 I NIL 1
366 NIL_366 5200 RESIDUE 1 I NIL 1
367 NIL_367 5242 RESIDUE 1 I NIL 1
368 NIL_368 5256 RESIDUE 1 I NIL 1
369 NIL_369 5271 RESIDUE 1 I NIL 1
370 NIL_370 5276 RESIDUE 1 I NIL 1
371 NIL_371 5286 RESIDUE 1 I NIL 1
372 NIL_372 5296 RESIDUE 1 I NIL 1
373 NIL_373 5338 RESIDUE 1 I NIL 1
374 NIL_374 5348 RESIDUE 1 I NIL 1
375 NIL_375 5358 RESIDUE 1 I NIL 1
376 NIL_376 5368 RESIDUE 1 I NIL 1
377 NIL_377 5383 RESIDUE 1 I NIL 1
378 NIL_378 5398 RESIDUE 1 I NIL 1
379 NIL_379 5413 RESIDUE 1 I NIL 1
380 NIL_380 5423 RESIDUE 1 I NIL 1
381 NIL_381 5428 RESIDUE 1 I NIL 1
382 NIL_382 5443 RESIDUE 1 I NIL 1
383 NIL_383 5453 RESIDUE 1 I NIL 1
384 NIL_384 5468 RESIDUE 1 I NIL 1
385 NIL_385 5473 RESIDUE 1 I NIL 1
386 NIL_386 5488 RESIDUE 1 I NIL 1
387 NIL_387 5530 RESIDUE 1 I NIL 1
388 NIL_388 5540 RESIDUE 1 I NIL 1
389 NIL_389 5555 RESIDUE 1 I NIL 1
390 NIL_390 5565 RESIDUE 1 I NIL 1
391 NIL_391 5580 RESIDUE 1 I NIL 1
392 NIL_392 5587 RESIDUE 1 I NIL 1
393 NIL_393 5594 RESIDUE 1 I NIL 1
394 NIL_394 5610 RESIDUE 1 I NIL 1
395 NIL_395 5625 RESIDUE 1 I NIL 1
396 NIL_396 5635 RESIDUE 1 I NIL 1
397 NIL_397 5649 RESIDUE 1 I NIL 1
398 NIL_398 5664 RESIDUE 1 I NIL 1
399 NIL_399 5679 RESIDUE 1 I NIL 1
400 NIL_400 5694 RESIDUE 1 I NIL 1
401 NIL_401 5710 RESIDUE 1 I NIL 1
402 NIL_402 5720 RESIDUE 1 I NIL 1
403 NIL_403 5735 RESIDUE 1 I NIL 1
404 NIL_404 5750 RESIDUE 1 I NIL 1
405 NIL_405 5765 RESIDUE 1 I NIL 1
406 NIL_406 5779 RESIDUE 1 J NIL 1
407 NIL_407 5793 RESIDUE 1 J NIL 1
408 NIL_408 5809 RESIDUE 1 J NIL 1
409 NIL_409 5824 RESIDUE 1 J NIL 1
410 NIL_410 5834 RESIDUE 1 J NIL 1
411 NIL_411 5849 RESIDUE 1 J NIL 1
412 NIL_412 5891 RESIDUE 1 J NIL 1
413 NIL_413 5906 RESIDUE 1 J NIL 1
414 NIL_414 5921 RESIDUE 1 J NIL 1
415 NIL_415 5931 RESIDUE 1 J NIL 1
416 NIL_416 5946 RESIDUE 1 J NIL 1
417 NIL_417 5961 RESIDUE 1 J NIL 1
418 NIL_418 5971 RESIDUE 1 J NIL 1
419 NIL_419 5985 RESIDUE 1 J NIL 1
420 NIL_420 5999 RESIDUE 1 J NIL 1
421 NIL_421 6006 RESIDUE 1 J NIL 1
422 NIL_422 6021 RESIDUE 1 J NIL 1
423 NIL_423 6036 RESIDUE 1 J NIL 1
424 NIL_424 6078 RESIDUE 1 J NIL 1
425 NIL_425 6085 RESIDUE 1 J NIL 1
426 NIL_426 6090 RESIDUE 1 J NIL 1
427 NIL_427 6105 RESIDUE 1 J NIL 1
428 NIL_428 6147 RESIDUE 1 J NIL 1
429 NIL_429 6163 RESIDUE 1 J NIL 1
430 NIL_430 6173 RESIDUE 1 J NIL 1
431 NIL_431 6188 RESIDUE 1 J NIL 1
432 NIL_432 6198 RESIDUE 1 J NIL 1
433 NIL_433 6203 RESIDUE 1 J NIL 1
434 NIL_434 6213 RESIDUE 1 J NIL 1
435 NIL_435 6228 RESIDUE 1 J NIL 1
436 NIL_436 6235 RESIDUE 1 J NIL 1
437 NIL_437 6250 RESIDUE 1 J NIL 1
438 NIL_438 6260 RESIDUE 1 J NIL 1
439 NIL_439 6275 RESIDUE 1 J NIL 1
440 NIL_440 6290 RESIDUE 1 J NIL 1
441 NIL_441 6305 RESIDUE 1 J NIL 1
442 NIL_442 6315 RESIDUE 1 J NIL 1
443 NIL_443 6330 RESIDUE 1 J NIL 1
444 NIL_444 6346 RESIDUE 1 J NIL 1
445 NIL_445 6356 RESIDUE 1 J NIL 1
446 NIL_446 6366 RESIDUE 1 J NIL 1
447 NIL_447 6376 RESIDUE 1 J NIL 1
448 NIL_448 6391 RESIDUE 1 J NIL 1
449 NIL_449 6406 RESIDUE 1 J NIL 1
450 NIL_450 6416 RESIDUE 1 J NIL 1
451 NIL_451 6421 RESIDUE 1 K NIL 1
452 NIL_452 6436 RESIDUE 1 K NIL 1
453 NIL_453 6452 RESIDUE 1 K NIL 1
454 NIL_454 6462 RESIDUE 1 K NIL 1
455 NIL_455 6472 RESIDUE 1 K NIL 1
456 NIL_456 6486 RESIDUE 1 K NIL 1
457 NIL_457 6493 RESIDUE 1 K NIL 1
458 NIL_458 6508 RESIDUE 1 K NIL 1
459 NIL_459 6523 RESIDUE 1 K NIL 1
460 NIL_460 6528 RESIDUE 1 K NIL 1
461 NIL_461 6538 RESIDUE 1 K NIL 1
462 NIL_462 6580 RESIDUE 1 K NIL 1
463 NIL_463 6595 RESIDUE 1 K NIL 1
464 NIL_464 6610 RESIDUE 1 K NIL 1
465 NIL_465 6625 RESIDUE 1 K NIL 1
466 NIL_466 6641 RESIDUE 1 K NIL 1
467 NIL_467 6648 RESIDUE 1 K NIL 1
468 NIL_468 6663 RESIDUE 1 K NIL 1
469 NIL_469 6678 RESIDUE 1 K NIL 1
470 NIL_470 6693 RESIDUE 1 K NIL 1
471 NIL_471 6703 RESIDUE 1 K NIL 1
472 NIL_472 6710 RESIDUE 1 K NIL 1
473 NIL_473 6720 RESIDUE 1 K NIL 1
474 NIL_474 6734 RESIDUE 1 K NIL 1
475 NIL_475 6749 RESIDUE 1 K NIL 1
476 NIL_476 6764 RESIDUE 1 K NIL 1
477 NIL_477 6779 RESIDUE 1 K NIL 1
478 NIL_478 6795 RESIDUE 1 K NIL 1
479 NIL_479 6805 RESIDUE 1 K NIL 1
480 NIL_480 6820 RESIDUE 1 K NIL 1
481 NIL_481 6862 RESIDUE 1 K NIL 1
482 NIL_482 6877 RESIDUE 1 K NIL 1
483 NIL_483 6887 RESIDUE 1 K NIL 1
484 NIL_484 6902 RESIDUE 1 K NIL 1
485 NIL_485 6907 RESIDUE 1 K NIL 1
486 NIL_486 6949 RESIDUE 1 K NIL 1
487 NIL_487 6954 RESIDUE 1 K NIL 1
488 NIL_488 6969 RESIDUE 1 K NIL 1
489 NIL_489 6979 RESIDUE 1 K NIL 1
490 NIL_490 6989 RESIDUE 1 K NIL 1
491 NIL_491 7003 RESIDUE 1 K NIL 1
492 NIL_492 7013 RESIDUE 1 K NIL 1
493 NIL_493 7028 RESIDUE 1 K NIL 1
494 NIL_494 7038 RESIDUE 1 K NIL 1
495 NIL_495 7053 RESIDUE 1 K NIL 1
496 NIL_496 7063 RESIDUE 1 L NIL 1
497 NIL_497 7073 RESIDUE 1 L NIL 1
498 NIL_498 7088 RESIDUE 1 L NIL 1
499 NIL_499 7093 RESIDUE 1 L NIL 1
500 NIL_500 7103 RESIDUE 1 L NIL 1
501 NIL_501 7113 RESIDUE 1 L NIL 1
502 NIL_502 7123 RESIDUE 1 L NIL 1
503 NIL_503 7138 RESIDUE 1 L NIL 1
504 NIL_504 7180 RESIDUE 1 L NIL 1
505 NIL_505 7196 RESIDUE 1 L NIL 1
506 NIL_506 7203 RESIDUE 1 L NIL 1
507 NIL_507 7218 RESIDUE 1 L NIL 1
508 NIL_508 7233 RESIDUE 1 L NIL 1
509 NIL_509 7248 RESIDUE 1 L NIL 1
510 NIL_510 7253 RESIDUE 1 L NIL 1
511 NIL_511 7267 RESIDUE 1 L NIL 1
512 NIL_512 7277 RESIDUE 1 L NIL 1
513 NIL_513 7292 RESIDUE 1 L NIL 1
514 NIL_514 7307 RESIDUE 1 L NIL 1
515 NIL_515 7314 RESIDUE 1 L NIL 1
516 NIL_516 7329 RESIDUE 1 L NIL 1
517 NIL_517 7344 RESIDUE 1 L NIL 1
518 NIL_518 7359 RESIDUE 1 L NIL 1
519 NIL_519 7374 RESIDUE 1 L NIL 1
520 NIL_520 7381 RESIDUE 1 L NIL 1
521 NIL_521 7391 RESIDUE 1 L NIL 1
522 NIL_522 7401 RESIDUE 1 L NIL 1
523 NIL_523 7411 RESIDUE 1 L NIL 1
524 NIL_524 7426 RESIDUE 1 L NIL 1
525 NIL_525 7436 RESIDUE 1 L NIL 1
526 NIL_526 7446 RESIDUE 1 L NIL 1
527 NIL_527 7461 RESIDUE 1 L NIL 1
528 NIL_528 7471 RESIDUE 1 L NIL 1
529 NIL_529 7487 RESIDUE 1 L NIL 1
530 NIL_530 7502 RESIDUE 1 L NIL 1
531 NIL_531 7517 RESIDUE 1 L NIL 1
532 NIL_532 7533 RESIDUE 1 L NIL 1
533 NIL_533 7548 RESIDUE 1 L NIL 1
534 NIL_534 7562 RESIDUE 1 L NIL 1
535 NIL_535 7572 RESIDUE 1 L NIL 1
536 NIL_536 7614 RESIDUE 1 L NIL 1
537 NIL_537 7629 RESIDUE 1 L NIL 1
538 NIL_538 7643 RESIDUE 1 L NIL 1
539 NIL_539 7648 RESIDUE 1 L NIL 1
540 NIL_540 7690 RESIDUE 1 L NIL 1
