@<TRIPOS>MOLECULE
NIL
17844 15076 3920 0 0
POLYMER
CHARGES


@<TRIPOS>ATOM
1 C_3691 -5.6162 2.49255 -19.1705 c2 1 NIL_1    0.000
2 C_3689 -4.929 3.657 -19.078 c2 1 NIL_1    0.000
3 C_3693 -5.429 1.427 -18.372 c2 1 NIL_1    0.000
4 C_3585 -3.976 3.889 -18.166 c2 1 NIL_1    0.000
5 C_3695 -4.477 1.669 -17.458 c2 1 NIL_1    0.000
6 C_3705 -6.253 0.037 -18.511 c3 1 NIL_1    0.000
7 C_1296 -3.145 5.120 -18.090 c 1 NIL_1    0.000
8 C_3697 -3.790 2.831 -17.360 c2 1 NIL_1    0.000
9 NH -5.710 -1.187 -17.681 n 1 NIL_1    0.000
10 O -3.215 5.995 -18.930 o 1 NIL_1    0.000
11 C_2350 -4.666 -2.121 -17.888 c 1 NIL_1    0.000
12 C_2345 -4.385 -3.355 -16.891 c3 1 NIL_1    0.000
13 O -3.944 -1.988 -18.855 o 1 NIL_1    0.000
14 N -3.300 -4.436 -17.016 n 1 NIL_1    0.000
15 C_2346 -4.188 -2.790 -15.396 c3 1 NIL_1    0.000
16 C_2348 -2.742 -4.606 -15.617 c3 1 NIL_1    0.000
17 C_2347 -3.625 -3.926 -14.493 c3 1 NIL_1    0.000
18 N -4.751 -4.773 -14.050 n 1 NIL_1    0.000
19 C_2359 -2.829 -3.420 -13.228 c 1 NIL_1    0.000
20 C_3508 -5.641 -5.070 -15.168 c3 1 NIL_1    0.000
21 O -1.922 -2.625 -13.366 o 1 NIL_1    0.000
22 C_3510 -6.363 -3.811 -15.675 c3 1 NIL_1    0.000
23 C_3512 -7.188 -3.164 -14.576 c3 1 NIL_1    0.000
24 H_35121 -7.924 -3.873 -14.193 hc 1 NIL_1    0.000
25 H_35122 -7.713 -2.287 -14.962 hc 1 NIL_1    0.000
26 H_35123 -6.542 -2.849 -13.754 hc 1 NIL_1    0.000
27 H_35101 -6.995 -4.075 -16.528 hc 1 NIL_1    0.000
28 H_35102 -5.668 -3.072 -16.017 hc 1 NIL_1    0.000
29 H_35081 -6.384 -5.802 -14.844 h1 1 NIL_1    0.000
30 H_35082 -5.048 -5.507 -15.975 h1 1 NIL_1    0.000
31 H_23481 -1.783 -4.137 -15.570 h1 1 NIL_1    0.000
32 H_23482 -2.628 -5.671 -15.400 h1 1 NIL_1    0.000
33 H_23461 -3.481 -1.977 -15.446 hc 1 NIL_1    0.000
34 H_23462 -5.130 -2.388 -14.982 hc 1 NIL_1    0.000
35 H_2345 -5.347 -3.917 -16.908 h1 1 NIL_1    0.000
36 H_3697 -3.040 2.897 -16.609 ha 1 NIL_1    0.000
37 H_37051 -7.286 0.214 -18.202 h1 1 NIL_1    0.000
38 H_37052 -6.269 -0.258 -19.564 h1 1 NIL_1    0.000
39 H_3695 -4.234 0.875 -16.756 ha 1 NIL_1    0.000
40 H_3689 -5.155 4.444 -19.795 ha 1 NIL_1    0.000
41 H_3691 -6.366 2.408 -19.952 ha 1 NIL_1    0.000
42 HH -6.255 -1.356 -16.848 hn 1 NIL_1    0.000
43 C_3522 7.477 -2.187 -15.152 c3 2 NIL_2    0.000
44 N 6.635 -1.640 -14.095 n 2 NIL_2    0.000
45 C_3524 8.865 -2.531 -14.604 c3 2 NIL_2    0.000
46 C_2829 5.268 -1.346 -14.579 c3 2 NIL_2    0.000
47 C_3526 9.542 -1.252 -14.091 c3 2 NIL_2    0.000
48 C_2828 4.763 -2.498 -15.505 c3 2 NIL_2    0.000
49 C_2830 5.247 -0.209 -15.683 c3 2 NIL_2    0.000
50 C_2841 4.333 -1.151 -13.328 c 2 NIL_2    0.000
51 C_2827 5.230 -2.267 -16.991 c3 2 NIL_2    0.000
52 N 5.503 -0.733 -17.087 n 2 NIL_2    0.000
53 O 3.130 -1.085 -13.477 o 2 NIL_2    0.000
54 C_2832 4.239 -3.082 -17.970 c 2 NIL_2    0.000
55 O 3.768 -2.527 -18.942 o 2 NIL_2    0.000
56 NH 3.908 -4.437 -17.731 n 2 NIL_2    0.000
57 C_3643 3.084 -5.503 -18.544 c3 2 NIL_2    0.000
58 C_3631 1.466 -5.476 -18.382 c2 2 NIL_2    0.000
59 C_3629 0.618 -6.040 -19.259 c2 2 NIL_2    0.000
60 C_3633 0.799 -4.893 -17.373 c2 2 NIL_2    0.000
61 C_3627 -0.734 -6.018 -19.151 c2 2 NIL_2    0.000
62 C_3635 -0.553 -4.867 -17.263 c2 2 NIL_2    0.000
63 C_2378 -1.394 -5.425 -18.147 c2 2 NIL_2    0.000
64 C_2349 -2.879 -5.311 -18.067 c 2 NIL_2    0.000
65 O -3.591 -5.724 -18.958 o 2 NIL_2    0.000
66 H_3635 -0.949 -4.354 -16.446 ha 2 NIL_2    0.000
67 H_3627 -1.316 -6.491 -19.937 ha 2 NIL_2    0.000
68 H_3633 1.380 -4.397 -16.600 ha 2 NIL_2    0.000
69 H_3629 1.047 -6.541 -20.123 ha 2 NIL_2    0.000
70 H_36431 3.448 -6.492 -18.256 h1 2 NIL_2    0.000
71 H_36432 3.323 -5.362 -19.601 h1 2 NIL_2    0.000
72 H_2827 6.202 -2.753 -17.104 h1 2 NIL_2    0.000
73 H_28301 4.264 0.257 -15.667 h1 2 NIL_2    0.000
74 H_28302 5.993 0.552 -15.436 h1 2 NIL_2    0.000
75 H_28281 3.672 -2.484 -15.494 hc 2 NIL_2    0.000
76 H_28282 5.089 -3.471 -15.135 hc 2 NIL_2    0.000
77 H_35261 10.511 -1.485 -13.648 hc 2 NIL_2    0.000
78 H_35262 8.931 -0.750 -13.346 hc 2 NIL_2    0.000
79 H_35263 9.689 -0.552 -14.912 hc 2 NIL_2    0.000
80 H_35241 9.475 -2.982 -15.388 hc 2 NIL_2    0.000
81 H_35242 8.764 -3.253 -13.791 hc 2 NIL_2    0.000
82 H_35221 7.572 -1.441 -15.946 h1 2 NIL_2    0.000
83 H_35222 7.003 -3.084 -15.558 h1 2 NIL_2    0.000
84 HH 4.314 -4.823 -16.891 hn 2 NIL_2    0.000
85 N -4.753 -4.775 -3.788 n 3 NIL_3    0.000
86 C_2464 -3.460 -4.236 -4.267 c3 3 NIL_3    0.000
87 C_2463 -3.746 -2.913 -5.013 c3 3 NIL_3    0.000
88 C_2465 -2.869 -5.011 -5.542 c3 3 NIL_3    0.000
89 C_2476 -2.489 -4.034 -3.038 c 3 NIL_3    0.000
90 C_2462 -4.138 -3.388 -6.538 c3 3 NIL_3    0.000
91 N -3.317 -4.396 -6.860 n 3 NIL_3    0.000
92 O -1.385 -3.559 -3.217 o 3 NIL_3    0.000
93 C_2467 -4.361 -2.271 -7.529 c 3 NIL_3    0.000
94 O -4.720 -1.150 -7.235 o 3 NIL_3    0.000
95 H_2462 -5.183 -3.836 -6.433 h1 3 NIL_3    0.000
96 H_24651 -1.778 -4.971 -5.501 h1 3 NIL_3    0.000
97 H_24652 -3.183 -6.059 -5.515 h1 3 NIL_3    0.000
98 H_24631 -2.874 -2.301 -5.083 hc 3 NIL_3    0.000
99 H_24632 -4.551 -2.330 -4.517 hc 3 NIL_3    0.000
100 C_268 -0.886 7.577 18.154 c3 4 NIL_4    0.000
101 C_267 -0.049 6.381 17.661 c3 4 NIL_4    0.000
102 C.fa -1.649 7.069 19.396 c3 4 NIL_4    0.000
103 N 0.239 5.578 18.833 n 4 NIL_4    0.000
104 C_272 1.192 6.770 16.899 c 4 NIL_4    0.000
105 C_270 -0.800 5.845 19.845 c3 4 NIL_4    0.000
106 NH -3.039 6.683 19.098 n 4 NIL_4    0.000
107 O 1.221 7.742 16.172 o 4 NIL_4    0.000
108 H_2701 -0.318 6.055 20.802 h1 4 NIL_4    0.000
109 H_2702 -1.437 4.963 19.948 h1 4 NIL_4    0.000
110 H.fa -1.655 7.836 20.175 h1 4 NIL_4    0.000
111 H_267 -0.654 5.767 16.987 h1 4 NIL_4    0.000
112 H_2681 -1.563 7.951 17.383 hc 4 NIL_4    0.000
113 H_2682 -0.211 8.380 18.456 hc 4 NIL_4    0.000
114 HH -3.133 5.768 18.694 hn 4 NIL_4    0.000
115 C_2530 -5.260 -4.507 6.275 c3 5 NIL_5    0.000
116 C_2531 -5.428 -3.013 5.962 c3 5 NIL_5    0.000
117 C_3500 -6.744 -2.767 5.216 c3 5 NIL_5    0.000
118 H_35001 -6.754 -3.317 4.273 hc 5 NIL_5    0.000
119 H_35002 -6.865 -1.703 5.001 hc 5 NIL_5    0.000
120 H_35003 -7.590 -3.100 5.822 hc 5 NIL_5    0.000
121 H_25311 -4.722 -2.685 5.301 hc 5 NIL_5    0.000
122 H_25312 -5.417 -2.441 6.892 hc 5 NIL_5    0.000
123 H_25301 -6.071 -4.831 6.932 h1 5 NIL_5    0.000
124 H_25302 -5.305 -5.082 5.347 h1 5 NIL_5    0.000
125 C_728 -6.538 5.541 17.034 c3 6 NIL_6    0.000
126 C_727 -5.636 4.380 17.499 c3 6 NIL_6    0.000
127 N -5.853 6.787 17.436 n3 6 NIL_6    0.000
128 C_726 -4.862 5.040 18.667 c3 6 NIL_6    0.000
129 N -4.745 3.942 16.402 n 6 NIL_6    0.000
130 C_738 -6.471 3.223 18.030 c 6 NIL_6    0.000
131 C_725 -5.344 6.509 18.786 c3 6 NIL_6    0.000
132 O -7.556 3.392 18.547 o 6 NIL_6    0.000
133 C_729 -4.197 7.382 19.279 c 6 NIL_6    0.000
134 O -4.278 8.503 19.737 o 6 NIL_6    0.000
135 H_725 -6.165 6.568 19.506 h1 6 NIL_6    0.000
136 H_7261 -3.798 5.014 18.441 hc 6 NIL_6    0.000
137 H_7262 -5.027 4.504 19.604 hc 6 NIL_6    0.000
138 H_7281 -6.713 5.513 15.956 h1 6 NIL_6    0.000
139 H_7282 -7.493 5.482 17.561 h1 6 NIL_6    0.000
140 C_2960 4.942 -0.317 1.953 c 7 NIL_7    0.000
141 C_2956 5.446 -1.189 0.739 c3 7 NIL_7    0.000
142 O 4.133 0.570 1.768 o 7 NIL_7    0.000
143 C_2955 6.579 -0.533 -0.114 c3 7 NIL_7    0.000
144 C_2957 4.381 -1.437 -0.431 c3 7 NIL_7    0.000
145 N 5.953 -2.462 1.305 n 7 NIL_7    0.000
146 C_2954 6.102 -0.347 -1.599 c3 7 NIL_7    0.000
147 N 4.938 -1.165 -1.814 n 7 NIL_7    0.000
148 C_2959 7.131 -0.564 -2.695 c 7 NIL_7    0.000
149 O 8.312 -0.379 -2.484 o 7 NIL_7    0.000
150 H_2954 5.765 0.686 -1.712 h1 7 NIL_7    0.000
151 H_29571 4.021 -2.467 -0.388 h1 7 NIL_7    0.000
152 H_29572 3.527 -0.772 -0.274 h1 7 NIL_7    0.000
153 H_29551 7.448 -1.195 -0.103 hc 7 NIL_7    0.000
154 H_29552 6.879 0.424 0.312 hc 7 NIL_7    0.000
155 N 1.307 -6.151 18.082 n 8 NIL_8    0.000
156 C_3832 1.057 -4.894 17.403 c3 8 NIL_8    0.000
157 C_3835 2.697 -6.173 18.570 c3 8 NIL_8    0.000
158 C_3833 2.442 -4.326 17.022 c3 8 NIL_8    0.000
159 C_3837 0.112 -5.067 16.234 c 8 NIL_8    0.000
160 C_3834 3.476 -4.974 17.969 c3 8 NIL_8    0.000
161 O 0.161 -4.358 15.250 o 8 NIL_8    0.000
162 N 4.631 -5.466 17.204 n 8 NIL_8    0.000
163 C_3841 3.902 -4.014 19.074 c 8 NIL_8    0.000
164 H 4.497 -6.333 16.705 hn 8 NIL_8    0.000
165 O 3.198 -3.797 20.039 o 8 NIL_8    0.000
166 H_38331 2.678 -4.623 15.999 hc 8 NIL_8    0.000
167 H_38332 2.465 -3.236 17.086 hc 8 NIL_8    0.000
168 H_38351 3.171 -7.108 18.261 h1 8 NIL_8    0.000
169 H_38352 2.703 -6.103 19.661 h1 8 NIL_8    0.000
170 H_3832 0.572 -4.223 18.116 h1 8 NIL_8    0.000
171 C_3502 -1.274 -0.645 1.314 c3 9 NIL_9    0.000
172 C_2529 -1.793 -1.396 0.080 c3 9 NIL_9    0.000
173 C_2528 -3.226 -1.890 0.324 c3 9 NIL_9    0.000
174 H_25281 -3.858 -1.043 0.600 h1 9 NIL_9    0.000
175 H_25282 -3.613 -2.333 -0.597 h1 9 NIL_9    0.000
176 H_25291 -1.777 -0.727 -0.782 hc 9 NIL_9    0.000
177 H_25292 -1.124 -2.210 -0.134 hc 9 NIL_9    0.000
178 H_35021 -1.259 -1.306 2.182 hc 9 NIL_9    0.000
179 H_35022 -1.920 0.206 1.538 hc 9 NIL_9    0.000
180 H_35023 -0.262 -0.276 1.139 hc 9 NIL_9    0.000
181 C_3887 -6.668 0.716 18.124 c3 10 NIL_10    0.000
182 C_3886 -5.824 -0.473 17.593 c3 10 NIL_10    0.000
183 N -5.969 1.981 17.846 n 10 NIL_10    0.000
184 C_3885 -4.647 0.231 16.873 c3 10 NIL_10    0.000
185 N -6.618 -1.254 16.632 n 10 NIL_10    0.000
186 C_3892 -5.342 -1.327 18.764 c 10 NIL_10    0.000
187 C_3884 -4.634 1.699 17.356 c3 10 NIL_10    0.000
188 H -7.224 -0.722 16.025 hn 10 NIL_10    0.000
189 O -4.979 -0.829 19.810 o 10 NIL_10    0.000
190 C_3888 -4.198 2.705 16.311 c 10 NIL_10    0.000
191 O -3.464 2.388 15.418 o 10 NIL_10    0.000
192 H_3884 -3.949 1.795 18.202 h1 10 NIL_10    0.000
193 H_38851 -4.829 0.213 15.795 hc 10 NIL_10    0.000
194 H_38852 -3.695 -0.265 17.070 hc 10 NIL_10    0.000
195 H_38871 -7.639 0.731 17.623 h1 10 NIL_10    0.000
196 H_38872 -6.820 0.618 19.201 h1 10 NIL_10    0.000
197 C_2292 6.613 1.389 15.312 c3 11 NIL_11    0.000
198 C_243 5.779 0.950 14.116 c 11 NIL_11    0.000
199 O 4.605 1.000 14.068 o 11 NIL_11    0.000
200 H_22921 7.165 0.517 15.673 h1 11 NIL_11    0.000
201 H_22922 7.320 2.146 14.964 h1 11 NIL_11    0.000
202 C_2474 -3.181 -4.260 0.838 c3 12 NIL_12    0.000
203 C_2473 -4.479 -4.675 0.059 c3 12 NIL_12    0.000
204 C_2475 -2.174 -4.226 -0.408 c3 12 NIL_12    0.000
205 C_2478 -2.856 -5.235 2.040 c 12 NIL_12    0.000
206 N -3.294 -2.891 1.386 n 12 NIL_12    0.000
207 C_2472 -4.080 -5.083 -1.405 c3 12 NIL_12    0.000
208 N -2.886 -4.357 -1.741 n 12 NIL_12    0.000
209 O -2.435 -6.352 1.816 o 12 NIL_12    0.000
210 C_2477 -5.136 -5.022 -2.499 c 12 NIL_12    0.000
211 O -6.306 -5.213 -2.240 o 12 NIL_12    0.000
212 H_2472 -3.778 -6.133 -1.369 h1 12 NIL_12    0.000
213 H_24751 -1.624 -3.325 -0.400 h1 12 NIL_12    0.000
214 H_24752 -1.475 -5.062 -0.324 h1 12 NIL_12    0.000
215 H_24731 -5.155 -3.818 0.018 hc 12 NIL_12    0.000
216 H_24732 -4.998 -5.494 0.564 hc 12 NIL_12    0.000
217 C_2521 -4.301 -1.585 -9.880 c3 13 NIL_13    0.000
218 C_2522 -3.174 -1.447 -10.878 c3 13 NIL_13    0.000
219 C_3506 -1.849 -1.041 -10.114 c3 13 NIL_13    0.000
220 H_35061 -1.590 -1.788 -9.347 hc 13 NIL_13    0.000
221 H_35062 -2.017 -0.093 -9.643 hc 13 NIL_13    0.000
222 H_35063 -1.018 -0.969 -10.814 hc 13 NIL_13    0.000
223 H_25221 -3.351 -0.795 -11.654 hc 13 NIL_13    0.000
224 H_25222 -3.056 -2.393 -11.441 hc 13 NIL_13    0.000
225 H_25211 -4.442 -0.607 -9.415 h1 13 NIL_13    0.000
226 H_25212 -5.210 -1.849 -10.426 h1 13 NIL_13    0.000
227 C_111 -1.432 -8.378 17.069 c3 14 NIL_14    0.000
228 C_110 -0.915 -6.986 17.484 c3 14 NIL_14    0.000
229 N -2.843 -8.465 17.497 n3 14 NIL_14    0.000
230 C_109 -2.026 -6.504 18.458 c3 14 NIL_14    0.000
231 N -0.746 -6.113 16.297 n 14 NIL_14    0.000
232 C_137 0.392 -7.133 18.249 c 14 NIL_14    0.000
233 C_108 -2.932 -7.726 18.763 c3 14 NIL_14    0.000
234 O 0.625 -8.106 18.934 o 14 NIL_14    0.000
235 C_113 -4.329 -7.289 19.198 c 14 NIL_14    0.000
236 O -5.230 -8.015 19.566 o 14 NIL_14    0.000
237 H_108 -2.490 -8.313 19.572 h1 14 NIL_14    0.000
238 H_1091 -2.616 -5.728 17.961 hc 14 NIL_14    0.000
239 H_1092 -1.605 -6.083 19.375 hc 14 NIL_14    0.000
240 H_1111 -1.338 -8.526 15.990 h1 14 NIL_14    0.000
241 H_1112 -0.857 -9.142 17.598 h1 14 NIL_14    0.000
242 C_2855 4.720 -1.307 6.943 c 15 NIL_15    0.000
243 C_2849 5.635 -0.726 5.845 c3 15 NIL_15    0.000
244 O 3.821 -2.057 6.620 o 15 NIL_15    0.000
245 C_2848 5.795 -2.289 5.823 c3 15 NIL_15    0.000
246 C_2850 4.891 -0.056 4.593 c3 15 NIL_15    0.000
247 N 6.631 0.141 6.529 n 15 NIL_15    0.000
248 C_2847 5.862 -1.358 3.289 c3 15 NIL_15    0.000
249 N 5.351 -0.607 3.243 n 15 NIL_15    0.000
250 C_2852 6.310 -2.789 2.443 c 15 NIL_15    0.000
251 O 6.910 -3.747 2.866 o 15 NIL_15    0.000
252 H_2847 7.345 -0.590 2.942 h1 15 NIL_15    0.000
253 H_28501 3.821 -0.244 4.674 h1 15 NIL_15    0.000
254 H_28502 5.057 1.026 4.611 h1 15 NIL_15    0.000
255 H_28481 5.674 -2.784 5.145 hc 15 NIL_15    0.000
256 H_28482 7.256 -2.282 5.731 hc 15 NIL_15    0.000
257 C_3520 5.761 -5.636 -8.932 c3 16 NIL_16    0.000
258 C_3007 4.409 -5.136 -9.469 c3 16 NIL_16    0.000
259 C_3006 4.544 -3.708 -10.017 c3 16 NIL_16    0.000
260 H_30061 5.247 -3.697 -10.853 h1 16 NIL_16    0.000
261 H_30062 3.569 -3.363 -10.372 h1 16 NIL_16    0.000
262 H_30071 4.060 -5.806 -10.256 hc 16 NIL_16    0.000
263 H_30072 3.671 -5.149 -8.665 hc 16 NIL_16    0.000
264 H_35201 6.225 -4.990 -8.233 hc 16 NIL_16    0.000
265 H_35202 6.492 -5.707 -9.732 hc 16 NIL_16    0.000
266 H_35203 5.641 -6.620 -8.475 hc 16 NIL_16    0.000
267 C_262 8.607 -0.245 19.435 c 17 NIL_17    0.000
268 C_257 8.263 1.165 18.979 c3 17 NIL_17    0.000
269 O 9.688 -0.640 19.823 o 17 NIL_17    0.000
270 N 8.888 1.629 17.737 n3 17 NIL_17    0.000
271 C_258 6.759 1.238 18.625 c3 17 NIL_17    0.000
272 C_260 8.037 2.728 17.231 c3 17 NIL_17    0.000
273 C_259 6.578 2.379 17.599 c3 17 NIL_17    0.000
274 N 5.800 1.945 16.414 n 17 NIL_17    0.000
275 C_271 5.927 3.559 18.303 c 17 NIL_17    0.000
276 O 6.569 4.349 18.965 o 17 NIL_17    0.000
277 H_2601 8.155 2.855 16.153 h1 17 NIL_17    0.000
278 H_2602 8.315 3.654 17.740 h1 17 NIL_17    0.000
279 H_2581 6.454 0.297 18.163 hc 17 NIL_17    0.000
280 H_2582 6.146 1.399 19.515 hc 17 NIL_17    0.000
281 H_257 8.485 1.862 19.790 h1 17 NIL_17    0.000
282 N 6.715 -0.997 -3.923 n 18 NIL_18    0.000
283 C_2946 5.334 -1.301 -4.364 c3 18 NIL_18    0.000
284 C_2945 5.312 -2.622 -5.194 c3 18 NIL_18    0.000
285 C_2947 4.806 -0.371 -5.525 c3 18 NIL_18    0.000
286 C_2958 4.428 -1.444 -3.078 c 18 NIL_18    0.000
287 C_2944 5.722 -2.273 -6.660 c3 18 NIL_18    0.000
288 N 4.850 -1.060 -6.871 n 18 NIL_18    0.000
289 O 3.300 -1.884 -3.175 o 18 NIL_18    0.000
290 C_2949 5.319 -3.259 -7.739 c 18 NIL_18    0.000
291 O 5.140 -4.396 -7.429 o 18 NIL_18    0.000
292 H_2944 6.811 -2.191 -6.715 h1 18 NIL_18    0.000
293 H_29471 3.781 -0.238 -5.518 h1 18 NIL_18    0.000
294 H_29472 4.946 1.062 -4.905 h1 18 NIL_18    0.000
295 H_29451 4.289 -3.005 -5.206 hc 18 NIL_18    0.000
296 H_29452 5.962 -3.384 -4.758 hc 18 NIL_18    0.000
297 C_1480 -5.333 5.219 5.729 c3 19 NIL_19    0.000
298 C_1481 -4.974 5.083 4.243 c3 19 NIL_19    0.000
299 C_3528 -4.327 3.720 3.972 c3 19 NIL_19    0.000
300 H_35281 -5.015 2.938 4.208 hc 19 NIL_19    0.000
301 H_35282 -3.538 3.911 4.088 hc 19 NIL_19    0.000
302 H_35283 -4.120 3.600 2.934 hc 19 NIL_19    0.000
303 H_14811 -4.373 5.754 4.243 hc 19 NIL_19    0.000
304 H_14812 -5.873 5.185 3.633 hc 19 NIL_19    0.000
305 H_14801 -5.762 6.207 5.912 h1 19 NIL_19    0.000
306 H_14802 -6.076 4.460 5.989 h1 19 NIL_19    0.000
307 C_2948 5.008 -0.458 -8.233 c 20 NIL_20    0.000
308 C_2937 5.169 -1.405 -9.481 c3 20 NIL_20    0.000
309 O 4.688 0.701 -8.378 o 20 NIL_20    0.000
310 C_2936 6.523 -1.269 -10.259 c3 20 NIL_20    0.000
311 C_2938 4.171 -1.118 -10.696 c3 20 NIL_20    0.000
312 N 5.026 -2.791 -8.986 n 20 NIL_20    0.000
313 C_2935 6.247 -0.877 -11.758 c3 20 NIL_20    0.000
314 N 4.859 -1.125 -12.043 n 20 NIL_20    0.000
315 C_2939 7.136 -1.480 -12.833 c 20 NIL_20    0.000
316 O 8.255 -1.850 -12.560 o 20 NIL_20    0.000
317 H_2935 6.381 0.205 -11.849 h1 20 NIL_20    0.000
318 H_29381 3.370 -1.861 -10.702 h1 20 NIL_20    0.000
319 H_29382 3.725 -0.130 -10.561 h1 20 NIL_20    0.000
320 H_29361 7.042 -2.230 -10.231 hc 20 NIL_20    0.000
321 H_29362 7.167 -0.526 -9.785 hc 20 NIL_20    0.000
322 C_1297 0.558 5.058 -17.895 c 21 NIL_21    0.000
323 C_1292 -0.669 5.546 -16.958 c3 21 NIL_21    0.000
324 O 0.347 4.240 -18.768 o 21 NIL_21    0.000
325 NH 1.876 5.551 -17.734 n 21 NIL_21    0.000
326 N -2.129 5.007 -17.090 n 21 NIL_21    0.000
327 C_1293 -0.302 5.302 -15.438 c3 21 NIL_21    0.000
328 C_3668 3.222 5.351 -18.534 c3 21 NIL_21    0.000
329 C_1295 -2.457 4.432 -15.728 c3 21 NIL_21    0.000
330 C_1294 -1.588 5.066 -14.573 c3 21 NIL_21    0.000
331 C_3656 4.014 3.940 -18.381 c2 21 NIL_21    0.000
332 N -2.152 6.350 -14.098 n 21 NIL_21    0.000
333 C_1306 -1.308 4.158 -13.318 c 21 NIL_21    0.000
334 C_3654 5.049 3.576 -19.159 c2 21 NIL_21    0.000
335 C_3658 3.733 2.986 -17.478 c2 21 NIL_21    0.000
336 C_3544 -2.060 7.382 -15.127 c3 21 NIL_21    0.000
337 O -0.621 3.163 -13.430 o 21 NIL_21    0.000
338 C_3652 5.713 2.399 -19.064 c2 21 NIL_21    0.000
339 C_3660 4.397 1.809 -17.376 c2 21 NIL_21    0.000
340 C_3546 -0.612 7.831 -15.361 c3 21 NIL_21    0.000
341 C_3574 5.422 1.446 -18.164 c2 21 NIL_21    0.000
342 C_3548 -0.559 8.849 -16.507 c3 21 NIL_21    0.000
343 C_2831 6.081 0.114 -18.090 c 21 NIL_21    0.000
344 O 6.872 -0.249 -18.937 o 21 NIL_21    0.000
345 H_35481 -1.140 9.737 -16.251 hc 21 NIL_21    0.000
346 H_35482 -0.972 8.412 -17.419 hc 21 NIL_21    0.000
347 H_35483 0.472 9.148 -16.700 hc 21 NIL_21    0.000
348 H_35461 -0.028 7.070 -15.684 hc 21 NIL_21    0.000
349 H_35462 -0.211 8.275 -14.447 hc 21 NIL_21    0.000
350 H_3660 4.064 1.110 -16.630 ha 21 NIL_21    0.000
351 H_3652 6.521 2.209 -19.766 ha 21 NIL_21    0.000
352 H_35441 -2.660 8.242 -14.818 h1 21 NIL_21    0.000
353 H_35442 -2.472 6.983 -16.058 h1 21 NIL_21    0.000
354 H_3658 2.911 3.166 -16.791 ha 21 NIL_21    0.000
355 H_3654 5.369 4.274 -19.928 ha 21 NIL_21    0.000
356 H_12951 -2.242 3.366 -15.752 h1 21 NIL_21    0.000
357 H_12952 -3.520 4.580 -15.518 h1 21 NIL_21    0.000
358 H_36681 3.901 6.152 -18.234 h1 21 NIL_21    0.000
359 H_36682 2.994 5.497 -19.594 h1 21 NIL_21    0.000
360 H_12931 0.322 4.412 -15.376 hc 21 NIL_21    0.000
361 H_12932 0.317 6.039 -14.971 hc 21 NIL_21    0.000
362 H_1292 -0.725 6.628 -17.110 h1 21 NIL_21    0.000
363 HH 1.979 6.216 -16.982 hn 21 NIL_21    0.000
364 C_1343 -2.946 4.870 11.869 c3 22 NIL_22    0.000
365 NH -3.801 5.202 13.019 n 22 NIL_22    0.000
366 C_1335 -3.369 5.481 10.406 c3 22 NIL_22    0.000
367 C_1323 -3.194 4.736 8.950 c3 22 NIL_22    0.000
368 C_1319 -4.347 5.020 7.969 c 22 NIL_22    0.000
369 NH -1.931 4.875 8.171 n 22 NIL_22    0.000
370 O -5.461 5.219 8.408 o 22 NIL_22    0.000
371 H_1323 -3.291 3.666 9.150 h1 22 NIL_22    0.000
372 H_13351 -4.444 5.655 10.490 hc 22 NIL_22    0.000
373 H_13352 -2.931 6.479 10.325 hc 22 NIL_22    0.000
374 H_13431 -2.951 3.781 11.785 h1 22 NIL_22    0.000
375 H_13432 -1.922 5.177 12.099 h1 22 NIL_22    0.000
376 HH -1.090 4.861 8.729 hn 22 NIL_22    0.000
377 HH -4.440 5.979 12.943 hn 22 NIL_22    0.000
378 N -3.160 -3.874 -11.955 n 23 NIL_23    0.000
379 C_2355 -4.093 -4.895 -11.644 c3 23 NIL_23    0.000
380 C_2358 -2.531 -3.581 -10.544 c3 23 NIL_23    0.000
381 C_2356 -4.648 -4.608 -10.202 c3 23 NIL_23    0.000
382 C_2360 -5.076 -5.153 -12.778 c 23 NIL_23    0.000
383 C_2357 -3.552 -3.846 -9.381 c3 23 NIL_23    0.000
384 O -6.132 -5.713 -12.568 o 23 NIL_23    0.000
385 N -4.081 -2.578 -8.829 n 23 NIL_23    0.000
386 C_2369 -2.989 -4.704 -8.179 c 23 NIL_23    0.000
387 O -2.244 -5.636 -8.399 o 23 NIL_23    0.000
388 H_23561 -5.535 -3.973 -10.273 hc 23 NIL_23    0.000
389 H_23562 -4.931 -5.537 -9.702 hc 23 NIL_23    0.000
390 H_23581 -2.165 -2.530 -10.472 h1 23 NIL_23    0.000
391 H_23582 -1.647 -4.105 -10.475 h1 23 NIL_23    0.000
392 H_2355 -3.496 -5.809 -11.583 h1 23 NIL_23    0.000
393 O 3.826 1.705 15.385 o 24 NIL_24    0.000
394 C_3865 4.454 2.070 16.307 c 24 NIL_24    0.000
395 C_3861 3.740 2.767 17.447 c3 24 NIL_24    0.000
396 N 4.599 3.720 18.120 n 24 NIL_24    0.000
397 C_3862 2.458 3.535 17.053 c3 24 NIL_24    0.000
398 C_3864 3.784 4.828 18.632 c3 24 NIL_24    0.000
399 C_3863 2.404 4.814 17.927 c3 24 NIL_24    0.000
400 N 2.294 6.012 17.083 n 24 NIL_24    0.000
401 C_3869 1.290 4.733 18.969 c 24 NIL_24    0.000
402 H 3.132 6.276 16.588 hn 24 NIL_24    0.000
403 O 1.366 3.987 19.923 o 24 NIL_24    0.000
404 H_38641 4.292 5.776 18.438 h1 24 NIL_24    0.000
405 H_38642 3.650 4.703 19.710 h1 24 NIL_24    0.000
406 H_38621 2.520 3.821 16.001 hc 24 NIL_24    0.000
407 H_38622 1.568 2.917 17.194 hc 24 NIL_24    0.000
408 H_3861 3.485 1.993 18.176 h1 24 NIL_24    0.000
409 C_2376 -2.659 -5.172 9.084 c3 25 NIL_25    0.000
410 C_2372 -3.965 -4.900 8.315 c 25 NIL_25    0.000
411 NH -1.553 -4.820 8.150 n 25 NIL_25    0.000
412 C_2388 -2.454 -4.540 10.586 c3 25 NIL_25    0.000
413 O -5.009 -4.801 8.927 o 25 NIL_25    0.000
414 C_2396 -3.064 -5.053 12.023 c3 25 NIL_25    0.000
415 NH -2.255 -5.934 12.882 n 25 NIL_25    0.000
416 H_23961 -3.266 -4.161 12.620 h1 25 NIL_25    0.000
417 H_23962 -4.025 -5.541 11.843 h1 25 NIL_25    0.000
418 H_23881 -2.759 -3.495 10.497 hc 25 NIL_25    0.000
419 H_23882 -1.374 -4.496 10.741 hc 25 NIL_25    0.000
420 H_2376 -2.621 -6.260 9.188 h1 25 NIL_25    0.000
421 HH -2.265 -6.923 12.679 hn 25 NIL_25    0.000
422 HH -0.646 -4.778 8.591 hn 25 NIL_25    0.000
423 N -2.886 4.692 2.893 n 26 NIL_26    0.000
424 C_1312 -3.066 5.938 3.408 c3 26 NIL_26    0.000
425 C_1315 -2.316 4.112 4.983 c3 26 NIL_26    0.000
426 C_1313 -2.677 6.232 4.913 c3 26 NIL_26    0.000
427 C_1317 -2.384 6.696 2.330 c 26 NIL_26    0.000
428 C_1314 -2.861 5.009 5.802 c3 26 NIL_26    0.000
429 O -1.927 7.803 2.530 o 26 NIL_26    0.000
430 N -4.171 5.043 6.599 n 26 NIL_26    0.000
431 C_1320 -1.751 4.834 6.799 c 26 NIL_26    0.000
432 O -0.620 4.742 6.369 o 26 NIL_26    0.000
433 H_13131 -1.613 6.464 4.928 hc 26 NIL_26    0.000
434 H_13132 -3.218 7.094 5.310 hc 26 NIL_26    0.000
435 H_13151 -1.946 3.299 4.651 h1 26 NIL_26    0.000
436 H_13152 -4.504 2.447 5.223 h1 26 NIL_26    0.000
437 H_1312 -4.114 6.305 3.057 h1 26 NIL_26    0.000
438 N -1.775 4.517 -12.060 n 27 NIL_27    0.000
439 C_1302 -2.798 5.507 -11.845 c3 27 NIL_27    0.000
440 C_1305 -1.530 3.896 -10.705 c3 27 NIL_27    0.000
441 C_1303 -2.817 5.883 -10.315 c3 27 NIL_27    0.000
442 C_1307 -2.703 6.626 -12.876 c 27 NIL_27    0.000
443 C_1304 -1.978 4.841 -9.498 c3 27 NIL_27    0.000
444 O -3.103 7.745 -12.628 o 27 NIL_27    0.000
445 N -0.806 5.520 -8.914 n 27 NIL_27    0.000
446 C_1316 -2.729 4.136 -8.305 c 27 NIL_27    0.000
447 O -3.436 3.170 -8.507 o 27 NIL_27    0.000
448 H_13031 -2.380 6.875 -10.175 hc 27 NIL_27    0.000
449 H_13032 -3.846 5.914 -9.951 hc 27 NIL_27    0.000
450 H_13051 -0.695 3.755 -10.765 h1 27 NIL_27    0.000
451 H_13052 -2.099 2.966 -10.658 h1 27 NIL_27    0.000
452 H_1302 -3.747 5.010 -12.067 h1 27 NIL_27    0.000
453 N -3.028 -4.829 3.363 n 28 NIL_28    0.000
454 C_2365 -3.597 -3.569 3.762 c3 28 NIL_28    0.000
455 C_2368 -2.786 -5.557 4.679 c3 28 NIL_28    0.000
456 C_2366 -3.002 -3.249 5.177 c3 28 NIL_28    0.000
457 C_2370 -3.470 -2.507 2.684 c 28 NIL_28    0.000
458 C_2367 -2.859 -4.593 5.962 c3 28 NIL_28    0.000
459 O -3.517 -1.327 2.965 o 28 NIL_28    0.000
460 N -3.986 -4.776 6.934 n 28 NIL_28    0.000
461 C_2373 -1.563 -4.606 6.787 c 28 NIL_28    0.000
462 O -0.506 -4.396 6.227 o 28 NIL_28    0.000
463 H_23661 -2.018 -2.799 5.052 hc 28 NIL_28    0.000
464 H_23662 -3.509 -2.521 5.765 hc 28 NIL_28    0.000
465 H_23681 -1.799 -6.022 4.636 h1 28 NIL_28    0.000
466 H_23682 -3.532 -6.349 4.784 h1 28 NIL_28    0.000
467 H_2365 -4.671 -3.741 3.877 h1 28 NIL_28    0.000
468 C_3514 7.580 -1.582 4.541 c3 29 NIL_29    0.000
469 C_3013 7.358 0.130 4.248 c3 29 NIL_29    0.000
470 C_3012 7.635 0.595 5.571 c3 29 NIL_29    0.000
471 H_30121 8.618 0.254 5.906 h1 29 NIL_29    0.000
472 H_30122 7.630 1.688 5.541 h1 29 NIL_29    0.000
473 H_30131 8.156 0.342 3.485 hc 29 NIL_29    0.000
474 H_30132 6.434 0.466 3.790 hc 29 NIL_29    0.000
475 H_35141 8.194 -1.923 4.581 hc 29 NIL_29    0.000
476 H_35142 7.468 -2.119 3.198 hc 29 NIL_29    0.000
477 H_35143 7.035 -1.440 4.302 hc 29 NIL_29    0.000
478 C_1415 -2.881 3.931 -5.656 c3 30 NIL_30    0.000
479 C_1414 -2.525 4.872 -4.413 c3 30 NIL_30    0.000
480 N -2.454 4.551 -6.983 n 30 NIL_30    0.000
481 C_1413 -1.454 5.726 -5.159 c3 30 NIL_30    0.000
482 N -3.676 5.713 -3.985 n 30 NIL_30    0.000
483 C_1426 -1.876 4.232 -3.127 c 30 NIL_30    0.000
484 C_1412 -1.832 5.797 -6.676 c3 30 NIL_30    0.000
485 O -0.817 3.642 -3.209 o 30 NIL_30    0.000
486 C_1417 -0.683 6.016 -7.649 c 30 NIL_30    0.000
487 O 0.339 6.573 -7.305 o 30 NIL_30    0.000
488 H_1412 -2.532 6.619 -6.835 h1 30 NIL_30    0.000
489 H_14131 -0.491 5.218 -5.078 hc 30 NIL_30    0.000
490 H_14132 -1.352 6.717 -4.714 hc 30 NIL_30    0.000
491 H_14151 -2.301 3.012 -5.577 h1 30 NIL_30    0.000
492 H_14152 -3.729 3.549 -5.539 h1 30 NIL_30    0.000
493 C_2285 -1.436 -6.603 15.088 c3 31 NIL_31    0.000
494 C_766 -1.812 -5.516 14.094 c 31 NIL_31    0.000
495 O -1.783 -4.338 14.381 o 31 NIL_31    0.000
496 H_22851 -2.355 -7.117 15.378 h1 31 NIL_31    0.000
497 H_22852 -0.787 -7.310 14.562 h1 31 NIL_31    0.000
498 N -2.453 4.416 -1.877 n 32 NIL_32    0.000
499 C_1422 -3.842 4.749 -1.694 c3 32 NIL_32    0.000
500 C_1425 -1.912 4.147 -0.490 c3 32 NIL_32    0.000
501 C_1423 -4.089 5.098 -0.174 c3 32 NIL_32    0.000
502 C_1427 -4.296 5.734 -2.765 c 32 NIL_32    0.000
503 C_1424 -2.796 4.812 0.664 c3 32 NIL_32    0.000
504 O -5.182 6.537 -2.550 o 32 NIL_32    0.000
505 C_1428 -2.967 3.933 1.933 c 32 NIL_32    0.000
506 N -2.232 6.103 1.108 n 32 NIL_32    0.000
507 O -3.080 2.717 1.856 o 32 NIL_32    0.000
508 H_14231 -4.362 6.152 -0.078 hc 32 NIL_32    0.000
509 H_14232 -4.921 4.502 0.209 hc 32 NIL_32    0.000
510 H_14251 -0.884 4.511 -0.425 h1 32 NIL_32    0.000
511 H_14252 -1.909 3.064 -0.343 h1 32 NIL_32    0.000
512 H_1422 -4.400 3.835 -1.908 h1 32 NIL_32    0.000
513 C_188 -2.423 -10.651 18.545 c3 33 NIL_33    0.000
514 C_112 -3.318 -9.853 17.586 c3 33 NIL_33    0.000
515 H_1121 -3.290 -10.305 16.591 h1 33 NIL_33    0.000
516 H_1122 -4.352 -9.865 17.945 h1 33 NIL_33    0.000
517 H_1881 -2.795 -11.672 18.654 hc 33 NIL_33    0.000
518 H_1882 -2.435 -10.182 19.530 hc 33 NIL_33    0.000
519 H_1883 -1.388 -10.688 18.190 hc 33 NIL_33    0.000
520 N 5.142 -3.472 18.984 n 34 NIL_34    0.000
521 C_133 6.006 -3.549 17.819 c3 34 NIL_34    0.000
522 C_136 5.862 -2.764 20.060 c3 34 NIL_34    0.000
523 C_134 7.447 -3.322 18.318 c3 34 NIL_34    0.000
524 C_138 5.814 -4.830 17.048 c 34 NIL_34    0.000
525 C.fc 7.311 -2.454 19.586 c3 34 NIL_34    0.000
526 O 6.689 -5.295 16.346 o 34 NIL_34    0.000
527 NH 7.489 -1.017 19.311 n 34 NIL_34    0.000
528 H.fc 8.037 -2.760 20.343 h1 34 NIL_34    0.000
529 H_1341 8.065 -2.837 17.562 hc 34 NIL_34    0.000
530 H_1342 7.895 -4.282 18.582 hc 34 NIL_34    0.000
531 H_1361 5.892 -3.413 20.940 h1 34 NIL_34    0.000
532 H_1362 5.336 -1.839 20.306 h1 34 NIL_34    0.000
533 H_133 5.728 -2.732 17.148 h1 34 NIL_34    0.000
534 HH 6.659 -0.551 18.977 hn 34 NIL_34    0.000
535 C_737 -5.275 -3.666 19.716 c3 35 NIL_35    0.000
536 C.fb -5.624 -5.079 19.169 c3 35 NIL_35    0.000
537 N -5.414 -2.675 18.630 n 35 NIL_35    0.000
538 C_735 -6.269 -4.753 17.806 c3 35 NIL_35    0.000
539 NH -4.431 -5.937 19.043 n 35 NIL_35    0.000
540 C_734 -5.694 -3.382 17.396 c3 35 NIL_35    0.000
541 C_739 -6.578 -2.594 16.462 c 35 NIL_35    0.000
542 O -7.252 -3.134 15.608 o 35 NIL_35    0.000
543 H_734 -4.740 -3.530 16.880 h1 35 NIL_35    0.000
544 H_7351 -6.070 -5.523 17.057 hc 35 NIL_35    0.000
545 H_7352 -7.351 -4.662 17.936 hc 35 NIL_35    0.000
546 H.fb -6.346 -5.576 19.821 h1 35 NIL_35    0.000
547 H_7371 -5.970 -3.402 20.516 h1 35 NIL_35    0.000
548 H_7372 -4.252 -3.651 20.100 h1 35 NIL_35    0.000
549 HH -3.599 -5.460 18.732 hn 35 NIL_35    0.000
550 C_2526 -5.750 -4.768 -4.857 c3 36 NIL_36    0.000
551 C_2527 -6.073 -3.326 -5.312 c3 36 NIL_36    0.000
552 C_3504 -7.016 -3.355 -6.531 c3 36 NIL_36    0.000
553 H_35041 -7.198 -2.336 -6.881 hc 36 NIL_36    0.000
554 H_35042 -7.967 -3.800 -6.239 hc 36 NIL_36    0.000
555 H_35043 -6.594 -3.937 -7.354 hc 36 NIL_36    0.000
556 H_25271 -5.226 -2.804 -5.598 hc 36 NIL_36    0.000
557 H_25272 -6.464 -2.751 -4.529 hc 36 NIL_36    0.000
558 H_25261 -6.669 -5.220 -4.480 h1 36 NIL_36    0.000
559 H_25262 -5.378 -5.367 -5.695 h1 36 NIL_36    0.000
560 C_2858 5.735 0.011 8.929 c3 37 NIL_37    0.000
561 C_2854 6.753 0.467 7.866 c 37 NIL_37    0.000
562 NH 4.913 -1.055 8.291 n 37 NIL_37    0.000
563 C_2870 6.400 -0.202 10.421 c3 37 NIL_37    0.000
564 O 7.705 1.137 8.210 o 37 NIL_37    0.000
565 C_2878 5.644 -0.026 11.868 c3 37 NIL_37    0.000
566 NH 6.421 0.464 13.022 n 37 NIL_37    0.000
567 H_28781 4.830 0.690 11.720 h1 37 NIL_37    0.000
568 H_28782 5.188 -0.980 12.143 h1 37 NIL_37    0.000
569 H_28701 7.210 0.529 10.455 hc 37 NIL_37    0.000
570 H_28702 6.896 -1.174 10.425 hc 37 NIL_37    0.000
571 H_2858 5.067 0.871 9.021 h1 37 NIL_37    0.000
572 HH 7.427 0.382 13.010 hn 37 NIL_37    0.000
573 HH 4.304 -1.548 8.926 hn 37 NIL_37    0.000
574 C_1478 -1.545 6.781 0.014 c3 38 NIL_38    0.000
575 C_1479 -2.538 7.362 -1.005 c3 38 NIL_38    0.000
576 C_3530 -3.424 8.422 -0.336 c3 38 NIL_38    0.000
577 H_35301 -3.989 7.978 0.487 hc 38 NIL_38    0.000
578 H_35302 -4.129 8.837 -1.059 hc 38 NIL_38    0.000
579 H_35303 -2.806 9.232 0.057 hc 38 NIL_38    0.000
580 H_14791 -3.163 6.565 -1.409 hc 38 NIL_38    0.000
581 H_14792 -1.992 7.811 -1.836 hc 38 NIL_38    0.000
582 H_14781 -0.899 6.058 -0.486 h1 38 NIL_38    0.000
583 H_14782 -0.928 7.583 0.425 h1 38 NIL_38    0.000
584 C_3010 5.886 -3.566 0.349 c3 39 NIL_39    0.000
585 C_3011 7.027 -3.516 -0.679 c3 39 NIL_39    0.000
586 C_3516 8.384 -3.637 0.028 c3 39 NIL_39    0.000
587 H_35161 8.518 -2.816 0.736 hc 39 NIL_39    0.000
588 H_35162 9.195 -3.601 -0.702 hc 39 NIL_39    0.000
589 H_35163 8.444 -4.581 0.574 hc 39 NIL_39    0.000
590 H_30111 6.984 -2.579 -1.237 hc 39 NIL_39    0.000
591 H_30112 6.912 -4.335 -1.392 hc 39 NIL_39    0.000
592 H_30101 4.926 -3.525 -0.166 h1 39 NIL_39    0.000
593 H_30102 5.947 -4.508 0.900 h1 39 NIL_39    0.000
594 C_1477 -5.182 6.102 -5.933 c3 40 NIL_40    0.000
595 C_1476 -4.078 6.661 -5.024 c3 40 NIL_40    0.000
596 C_3532 -4.737 4.809 -6.628 c3 40 NIL_40    0.000
597 H_35321 -3.893 4.990 -7.205 hc 40 NIL_40    0.000
598 H_35322 -5.523 4.448 -7.293 hc 40 NIL_40    0.000
599 H_35323 -4.759 4.167 -5.976 hc 40 NIL_40    0.000
600 H_14761 -3.206 6.912 -5.627 h1 40 NIL_40    0.000
601 H_14762 -4.447 7.572 -4.543 h1 40 NIL_40    0.000
602 H_14771 -5.444 6.852 -6.685 hc 40 NIL_40    0.000
603 H_14772 -6.069 5.895 -5.330 hc 40 NIL_40    0.000
604 C_1472 0.880 4.102 -9.999 c3 41 NIL_41    0.000
605 C_1471 0.317 5.521 -9.844 c3 41 NIL_41    0.000
606 C_3542 1.925 4.050 -11.120 c3 41 NIL_41    0.000
607 H_35421 2.276 3.025 -11.256 hc 41 NIL_41    0.000
608 H_35422 2.780 4.684 -10.873 hc 41 NIL_41    0.000
609 H_35423 1.492 4.399 -12.060 hc 41 NIL_41    0.000
610 H_14711 1.094 6.193 -9.473 h1 41 NIL_41    0.000
611 H_14712 -0.036 5.882 -10.813 h1 41 NIL_41    0.000
612 H_14721 0.285 3.316 -10.082 hc 41 NIL_41    0.000
613 H_14722 1.319 3.773 -9.058 hc 41 NIL_41    0.000
614 C_660 10.290 2.037 17.915 c3 42 NIL_42    0.000
615 C_662 10.370 3.251 18.853 c3 42 NIL_42    0.000
616 H_6621 9.785 4.081 18.452 hc 42 NIL_42    0.000
617 H_6622 11.402 3.587 18.958 hc 42 NIL_42    0.000
618 H_6623 9.985 2.992 19.840 hc 42 NIL_42    0.000
619 H_6601 10.714 2.305 16.943 h1 42 NIL_42    0.000
620 H_6602 10.866 1.205 18.332 h1 42 NIL_42    0.000
621 C_3009 7.712 -0.037 -5.971 c3 43 NIL_43    0.000
622 C_3008 7.685 -1.217 -4.990 c3 43 NIL_43    0.000
623 C_3518 6.367 0.166 -6.623 c3 43 NIL_43    0.000
624 H_35181 6.027 -0.055 -6.444 hc 43 NIL_43    0.000
625 H_35182 6.359 -0.687 -7.237 hc 43 NIL_43    0.000
626 H_35183 6.344 0.985 -7.315 hc 43 NIL_43    0.000
627 H_30081 7.424 -2.134 -5.519 h1 43 NIL_43    0.000
628 H_30082 8.674 -1.344 -4.541 h1 43 NIL_43    0.000
629 H_30091 8.459 -0.219 -6.747 hc 43 NIL_43    0.000
630 H_30092 7.992 0.876 -5.442 hc 43 NIL_43    0.000
631 C_2299 -4.632 4.918 15.307 c3 44 NIL_44    0.000
632 C_309 -3.728 4.489 14.169 c 44 NIL_44    0.000
633 O -2.956 3.571 14.253 o 44 NIL_44    0.000
634 H_22991 -4.265 5.812 15.584 h1 44 NIL_44    0.000
635 H_22992 -5.622 5.037 14.883 h1 44 NIL_44    0.000
636 C_769 -4.729 7.047 16.534 c3 45 NIL_45    0.000
637 C_770 -5.236 7.154 15.079 c3 45 NIL_45    0.000
638 H_7701 -5.701 6.269 14.759 hc 45 NIL_45    0.000
639 H_7702 -4.406 7.372 14.403 hc 45 NIL_45    0.000
640 H_7703 -5.975 7.948 15.002 hc 45 NIL_45    0.000
641 H_7691 -3.987 6.246 16.696 h1 45 NIL_45    0.000
642 H_7692 -4.215 7.957 16.814 h1 45 NIL_45    0.000
643 C_3691 10.884 2.493 -19.171 c2 46 NIL_46    0.000
644 C_3689 11.571 3.657 -19.078 c2 46 NIL_46    0.000
645 C_3693 11.071 1.427 -18.372 c2 46 NIL_46    0.000
646 C_3585 12.524 3.889 -18.166 c2 46 NIL_46    0.000
647 C_3695 12.023 1.669 -17.458 c2 46 NIL_46    0.000
648 C_3705 10.247 0.037 -18.511 c3 46 NIL_46    0.000
649 C_1296 13.355 5.120 -18.090 c 46 NIL_46    0.000
650 C_3697 12.710 2.831 -17.360 c2 46 NIL_46    0.000
651 NH 10.790 -1.187 -17.681 n 46 NIL_46    0.000
652 O 13.285 5.995 -18.930 o 46 NIL_46    0.000
653 C_2350 11.834 -2.121 -17.888 c 46 NIL_46    0.000
654 C_2345 12.115 -3.355 -16.891 c3 46 NIL_46    0.000
655 O 12.556 -1.988 -18.855 o 46 NIL_46    0.000
656 N 13.200 -4.436 -17.016 n 46 NIL_46    0.000
657 C_2346 12.312 -2.790 -15.396 c3 46 NIL_46    0.000
658 C_2348 13.758 -4.606 -15.617 c3 46 NIL_46    0.000
659 C_2347 12.875 -3.926 -14.493 c3 46 NIL_46    0.000
660 N 11.749 -4.773 -14.050 n 46 NIL_46    0.000
661 C_2359 13.671 -3.420 -13.228 c 46 NIL_46    0.000
662 C_3508 10.859 -5.070 -15.168 c3 46 NIL_46    0.000
663 O 14.578 -2.625 -13.366 o 46 NIL_46    0.000
664 C_3510 10.137 -3.811 -15.675 c3 46 NIL_46    0.000
665 C_3512 9.312 -3.164 -14.576 c3 46 NIL_46    0.000
666 H_35121 8.576 -3.873 -14.193 hc 46 NIL_46    0.000
667 H_35122 8.787 -2.287 -14.962 hc 46 NIL_46    0.000
668 H_35123 9.958 -2.849 -13.754 hc 46 NIL_46    0.000
669 H_35101 9.505 -4.075 -16.528 hc 46 NIL_46    0.000
670 H_35102 10.832 -3.072 -16.017 hc 46 NIL_46    0.000
671 H_35081 10.116 -5.802 -14.844 h1 46 NIL_46    0.000
672 H_35082 11.452 -5.507 -15.975 h1 46 NIL_46    0.000
673 H_23481 14.717 -4.137 -15.570 h1 46 NIL_46    0.000
674 H_23482 13.872 -5.671 -15.400 h1 46 NIL_46    0.000
675 H_23461 13.019 -1.977 -15.446 hc 46 NIL_46    0.000
676 H_23462 11.370 -2.388 -14.982 hc 46 NIL_46    0.000
677 H_2345 11.153 -3.917 -16.908 h1 46 NIL_46    0.000
678 H_3697 13.460 2.897 -16.609 ha 46 NIL_46    0.000
679 H_37051 9.214 0.214 -18.202 h1 46 NIL_46    0.000
680 H_37052 10.231 -0.258 -19.564 h1 46 NIL_46    0.000
681 H_3695 12.266 0.875 -16.756 ha 46 NIL_46    0.000
682 H_3689 11.345 4.444 -19.795 ha 46 NIL_46    0.000
683 H_3691 10.134 2.408 -19.952 ha 46 NIL_46    0.000
684 HH 10.245 -1.356 -16.848 hn 46 NIL_46    0.000
685 C_3522 23.977 -2.187 -15.152 c3 47 NIL_47    0.000
686 N 23.135 -1.640 -14.095 n 47 NIL_47    0.000
687 C_3524 25.365 -2.531 -14.604 c3 47 NIL_47    0.000
688 C_2829 21.768 -1.346 -14.579 c3 47 NIL_47    0.000
689 C_3526 26.042 -1.252 -14.091 c3 47 NIL_47    0.000
690 C_2828 21.263 -2.498 -15.505 c3 47 NIL_47    0.000
691 C_2830 21.747 -0.209 -15.683 c3 47 NIL_47    0.000
692 C_2841 20.833 -1.151 -13.328 c 47 NIL_47    0.000
693 C_2827 21.730 -2.267 -16.991 c3 47 NIL_47    0.000
694 N 22.003 -0.733 -17.087 n 47 NIL_47    0.000
695 O 19.630 -1.085 -13.477 o 47 NIL_47    0.000
696 C_2832 20.739 -3.082 -17.970 c 47 NIL_47    0.000
697 O 20.268 -2.527 -18.942 o 47 NIL_47    0.000
698 NH 20.408 -4.437 -17.731 n 47 NIL_47    0.000
699 C_3643 19.584 -5.503 -18.544 c3 47 NIL_47    0.000
700 C_3631 17.966 -5.476 -18.382 c2 47 NIL_47    0.000
701 C_3629 17.118 -6.040 -19.259 c2 47 NIL_47    0.000
702 C_3633 17.299 -4.893 -17.373 c2 47 NIL_47    0.000
703 C_3627 15.766 -6.018 -19.151 c2 47 NIL_47    0.000
704 C_3635 15.947 -4.867 -17.263 c2 47 NIL_47    0.000
705 C_2378 15.106 -5.425 -18.147 c2 47 NIL_47    0.000
706 C_2349 13.621 -5.311 -18.067 c 47 NIL_47    0.000
707 O 12.909 -5.724 -18.958 o 47 NIL_47    0.000
708 H_3635 15.551 -4.354 -16.446 ha 47 NIL_47    0.000
709 H_3627 15.184 -6.491 -19.937 ha 47 NIL_47    0.000
710 H_3633 17.880 -4.397 -16.600 ha 47 NIL_47    0.000
711 H_3629 17.547 -6.541 -20.123 ha 47 NIL_47    0.000
712 H_36431 19.948 -6.492 -18.256 h1 47 NIL_47    0.000
713 H_36432 19.823 -5.362 -19.601 h1 47 NIL_47    0.000
714 H_2827 22.702 -2.753 -17.104 h1 47 NIL_47    0.000
715 H_28301 20.764 0.257 -15.667 h1 47 NIL_47    0.000
716 H_28302 22.493 0.552 -15.436 h1 47 NIL_47    0.000
717 H_28281 20.172 -2.484 -15.494 hc 47 NIL_47    0.000
718 H_28282 21.589 -3.471 -15.135 hc 47 NIL_47    0.000
719 H_35261 27.011 -1.485 -13.648 hc 47 NIL_47    0.000
720 H_35262 25.431 -0.750 -13.346 hc 47 NIL_47    0.000
721 H_35263 26.189 -0.552 -14.912 hc 47 NIL_47    0.000
722 H_35241 25.975 -2.982 -15.388 hc 47 NIL_47    0.000
723 H_35242 25.264 -3.253 -13.791 hc 47 NIL_47    0.000
724 H_35221 24.072 -1.441 -15.946 h1 47 NIL_47    0.000
725 H_35222 23.503 -3.084 -15.558 h1 47 NIL_47    0.000
726 HH 20.814 -4.823 -16.891 hn 47 NIL_47    0.000
727 N 11.747 -4.775 -3.788 n 48 NIL_48    0.000
728 C_2464 13.040 -4.236 -4.267 c3 48 NIL_48    0.000
729 C_2463 12.754 -2.913 -5.013 c3 48 NIL_48    0.000
730 C_2465 13.631 -5.011 -5.542 c3 48 NIL_48    0.000
731 C_2476 14.011 -4.034 -3.038 c 48 NIL_48    0.000
732 C_2462 12.362 -3.388 -6.538 c3 48 NIL_48    0.000
733 N 13.183 -4.396 -6.860 n 48 NIL_48    0.000
734 O 15.115 -3.559 -3.217 o 48 NIL_48    0.000
735 C_2467 12.139 -2.271 -7.529 c 48 NIL_48    0.000
736 O 11.780 -1.150 -7.235 o 48 NIL_48    0.000
737 H_2462 11.317 -3.836 -6.433 h1 48 NIL_48    0.000
738 H_24651 14.722 -4.971 -5.501 h1 48 NIL_48    0.000
739 H_24652 13.317 -6.059 -5.515 h1 48 NIL_48    0.000
740 H_24631 13.626 -2.301 -5.083 hc 48 NIL_48    0.000
741 H_24632 11.949 -2.330 -4.517 hc 48 NIL_48    0.000
742 C_268 15.614 7.577 18.154 c3 49 NIL_49    0.000
743 C_267 16.451 6.381 17.661 c3 49 NIL_49    0.000
744 C.fa 14.851 7.069 19.396 c3 49 NIL_49    0.000
745 N 16.739 5.578 18.833 n 49 NIL_49    0.000
746 C_272 17.692 6.770 16.899 c 49 NIL_49    0.000
747 C_270 15.700 5.845 19.845 c3 49 NIL_49    0.000
748 NH 13.461 6.683 19.098 n 49 NIL_49    0.000
749 O 17.721 7.742 16.172 o 49 NIL_49    0.000
750 H_2701 16.182 6.055 20.802 h1 49 NIL_49    0.000
751 H_2702 15.063 4.963 19.948 h1 49 NIL_49    0.000
752 H.fa 14.845 7.836 20.175 h1 49 NIL_49    0.000
753 H_267 15.846 5.767 16.987 h1 49 NIL_49    0.000
754 H_2681 14.937 7.951 17.383 hc 49 NIL_49    0.000
755 H_2682 16.289 8.380 18.456 hc 49 NIL_49    0.000
756 HH 13.367 5.768 18.694 hn 49 NIL_49    0.000
757 C_2530 11.240 -4.507 6.275 c3 50 NIL_50    0.000
758 C_2531 11.072 -3.013 5.962 c3 50 NIL_50    0.000
759 C_3500 9.756 -2.767 5.216 c3 50 NIL_50    0.000
760 H_35001 9.746 -3.317 4.273 hc 50 NIL_50    0.000
761 H_35002 9.635 -1.703 5.001 hc 50 NIL_50    0.000
762 H_35003 8.910 -3.100 5.822 hc 50 NIL_50    0.000
763 H_25311 11.778 -2.685 5.301 hc 50 NIL_50    0.000
764 H_25312 11.083 -2.441 6.892 hc 50 NIL_50    0.000
765 H_25301 10.429 -4.831 6.932 h1 50 NIL_50    0.000
766 H_25302 11.195 -5.082 5.347 h1 50 NIL_50    0.000
767 C_728 9.962 5.541 17.034 c3 51 NIL_51    0.000
768 C_727 10.864 4.380 17.499 c3 51 NIL_51    0.000
769 N 10.647 6.787 17.436 n3 51 NIL_51    0.000
770 C_726 11.638 5.040 18.667 c3 51 NIL_51    0.000
771 N 11.755 3.942 16.402 n 51 NIL_51    0.000
772 C_738 10.029 3.223 18.030 c 51 NIL_51    0.000
773 C_725 11.156 6.509 18.786 c3 51 NIL_51    0.000
774 O 8.944 3.392 18.547 o 51 NIL_51    0.000
775 C_729 12.303 7.382 19.279 c 51 NIL_51    0.000
776 O 12.222 8.503 19.737 o 51 NIL_51    0.000
777 H_725 10.335 6.568 19.506 h1 51 NIL_51    0.000
778 H_7261 12.702 5.014 18.441 hc 51 NIL_51    0.000
779 H_7262 11.473 4.504 19.604 hc 51 NIL_51    0.000
780 H_7281 9.787 5.513 15.956 h1 51 NIL_51    0.000
781 H_7282 9.007 5.482 17.561 h1 51 NIL_51    0.000
782 C_2960 21.442 -0.317 1.953 c 52 NIL_52    0.000
783 C_2956 21.946 -1.189 0.739 c3 52 NIL_52    0.000
784 O 20.633 0.570 1.768 o 52 NIL_52    0.000
785 C_2955 23.079 -0.533 -0.114 c3 52 NIL_52    0.000
786 C_2957 20.881 -1.437 -0.431 c3 52 NIL_52    0.000
787 N 22.453 -2.462 1.305 n 52 NIL_52    0.000
788 C_2954 22.602 -0.347 -1.599 c3 52 NIL_52    0.000
789 N 21.438 -1.165 -1.814 n 52 NIL_52    0.000
790 C_2959 23.631 -0.564 -2.695 c 52 NIL_52    0.000
791 O 24.812 -0.379 -2.484 o 52 NIL_52    0.000
792 H_2954 22.265 0.686 -1.712 h1 52 NIL_52    0.000
793 H_29571 20.521 -2.467 -0.388 h1 52 NIL_52    0.000
794 H_29572 20.027 -0.772 -0.274 h1 52 NIL_52    0.000
795 H_29551 23.948 -1.195 -0.103 hc 52 NIL_52    0.000
796 H_29552 23.379 0.424 0.312 hc 52 NIL_52    0.000
797 N 17.807 -6.151 18.082 n 53 NIL_53    0.000
798 C_3832 17.557 -4.894 17.403 c3 53 NIL_53    0.000
799 C_3835 19.197 -6.173 18.570 c3 53 NIL_53    0.000
800 C_3833 18.942 -4.326 17.022 c3 53 NIL_53    0.000
801 C_3837 16.612 -5.067 16.234 c 53 NIL_53    0.000
802 C_3834 19.976 -4.974 17.969 c3 53 NIL_53    0.000
803 O 16.661 -4.358 15.250 o 53 NIL_53    0.000
804 N 21.131 -5.466 17.204 n 53 NIL_53    0.000
805 C_3841 20.402 -4.014 19.074 c 53 NIL_53    0.000
806 H 20.997 -6.333 16.705 hn 53 NIL_53    0.000
807 O 19.698 -3.797 20.039 o 53 NIL_53    0.000
808 H_38331 19.178 -4.623 15.999 hc 53 NIL_53    0.000
809 H_38332 18.965 -3.236 17.086 hc 53 NIL_53    0.000
810 H_38351 19.671 -7.108 18.261 h1 53 NIL_53    0.000
811 H_38352 19.203 -6.103 19.661 h1 53 NIL_53    0.000
812 H_3832 17.072 -4.223 18.116 h1 53 NIL_53    0.000
813 C_3502 15.226 -0.645 1.314 c3 54 NIL_54    0.000
814 C_2529 14.707 -1.396 0.080 c3 54 NIL_54    0.000
815 C_2528 13.274 -1.890 0.324 c3 54 NIL_54    0.000
816 H_25281 12.642 -1.043 0.600 h1 54 NIL_54    0.000
817 H_25282 12.887 -2.333 -0.597 h1 54 NIL_54    0.000
818 H_25291 14.723 -0.727 -0.782 hc 54 NIL_54    0.000
819 H_25292 15.376 -2.210 -0.134 hc 54 NIL_54    0.000
820 H_35021 15.241 -1.306 2.182 hc 54 NIL_54    0.000
821 H_35022 14.580 0.206 1.538 hc 54 NIL_54    0.000
822 H_35023 16.238 -0.276 1.139 hc 54 NIL_54    0.000
823 C_3887 9.832 0.716 18.124 c3 55 NIL_55    0.000
824 C_3886 10.676 -0.473 17.593 c3 55 NIL_55    0.000
825 N 10.531 1.981 17.846 n 55 NIL_55    0.000
826 C_3885 11.853 0.231 16.873 c3 55 NIL_55    0.000
827 N 9.882 -1.254 16.632 n 55 NIL_55    0.000
828 C_3892 11.158 -1.327 18.764 c 55 NIL_55    0.000
829 C_3884 11.866 1.699 17.356 c3 55 NIL_55    0.000
830 H 9.276 -0.722 16.025 hn 55 NIL_55    0.000
831 O 11.521 -0.829 19.810 o 55 NIL_55    0.000
832 C_3888 12.302 2.705 16.311 c 55 NIL_55    0.000
833 O 13.036 2.388 15.418 o 55 NIL_55    0.000
834 H_3884 12.551 1.795 18.202 h1 55 NIL_55    0.000
835 H_38851 11.671 0.213 15.795 hc 55 NIL_55    0.000
836 H_38852 12.805 -0.265 17.070 hc 55 NIL_55    0.000
837 H_38871 8.861 0.731 17.623 h1 55 NIL_55    0.000
838 H_38872 9.680 0.618 19.201 h1 55 NIL_55    0.000
839 C_2292 23.113 1.389 15.312 c3 56 NIL_56    0.000
840 C_243 22.279 0.950 14.116 c 56 NIL_56    0.000
841 O 21.105 1.000 14.068 o 56 NIL_56    0.000
842 H_22921 23.665 0.517 15.673 h1 56 NIL_56    0.000
843 H_22922 23.820 2.146 14.964 h1 56 NIL_56    0.000
844 C_2474 13.319 -4.260 0.838 c3 57 NIL_57    0.000
845 C_2473 12.021 -4.675 0.059 c3 57 NIL_57    0.000
846 C_2475 14.326 -4.226 -0.408 c3 57 NIL_57    0.000
847 C_2478 13.644 -5.235 2.040 c 57 NIL_57    0.000
848 N 13.206 -2.891 1.386 n 57 NIL_57    0.000
849 C_2472 12.420 -5.083 -1.405 c3 57 NIL_57    0.000
850 N 13.614 -4.357 -1.741 n 57 NIL_57    0.000
851 O 14.065 -6.352 1.816 o 57 NIL_57    0.000
852 C_2477 11.364 -5.022 -2.499 c 57 NIL_57    0.000
853 O 10.194 -5.213 -2.240 o 57 NIL_57    0.000
854 H_2472 12.722 -6.133 -1.369 h1 57 NIL_57    0.000
855 H_24751 14.876 -3.325 -0.400 h1 57 NIL_57    0.000
856 H_24752 15.025 -5.062 -0.324 h1 57 NIL_57    0.000
857 H_24731 11.345 -3.818 0.018 hc 57 NIL_57    0.000
858 H_24732 11.502 -5.494 0.564 hc 57 NIL_57    0.000
859 C_2521 12.199 -1.585 -9.880 c3 58 NIL_58    0.000
860 C_2522 13.326 -1.447 -10.878 c3 58 NIL_58    0.000
861 C_3506 14.651 -1.041 -10.114 c3 58 NIL_58    0.000
862 H_35061 14.910 -1.788 -9.347 hc 58 NIL_58    0.000
863 H_35062 14.483 -0.093 -9.643 hc 58 NIL_58    0.000
864 H_35063 15.482 -0.969 -10.814 hc 58 NIL_58    0.000
865 H_25221 13.149 -0.795 -11.654 hc 58 NIL_58    0.000
866 H_25222 13.444 -2.393 -11.441 hc 58 NIL_58    0.000
867 H_25211 12.058 -0.607 -9.415 h1 58 NIL_58    0.000
868 H_25212 11.290 -1.849 -10.426 h1 58 NIL_58    0.000
869 C_111 15.068 -8.378 17.069 c3 59 NIL_59    0.000
870 C_110 15.585 -6.986 17.484 c3 59 NIL_59    0.000
871 N 13.657 -8.465 17.497 n3 59 NIL_59    0.000
872 C_109 14.474 -6.504 18.458 c3 59 NIL_59    0.000
873 N 15.754 -6.113 16.297 n 59 NIL_59    0.000
874 C_137 16.892 -7.133 18.249 c 59 NIL_59    0.000
875 C_108 13.568 -7.726 18.763 c3 59 NIL_59    0.000
876 O 17.125 -8.106 18.934 o 59 NIL_59    0.000
877 C_113 12.171 -7.289 19.198 c 59 NIL_59    0.000
878 O 11.270 -8.015 19.566 o 59 NIL_59    0.000
879 H_108 14.010 -8.313 19.572 h1 59 NIL_59    0.000
880 H_1091 13.884 -5.728 17.961 hc 59 NIL_59    0.000
881 H_1092 14.895 -6.083 19.375 hc 59 NIL_59    0.000
882 H_1111 15.162 -8.526 15.990 h1 59 NIL_59    0.000
883 H_1112 15.643 -9.142 17.598 h1 59 NIL_59    0.000
884 C_2855 21.220 -1.307 6.943 c 60 NIL_60    0.000
885 C_2849 22.135 -0.726 5.845 c3 60 NIL_60    0.000
886 O 20.321 -2.057 6.620 o 60 NIL_60    0.000
887 C_2848 22.295 -2.289 5.823 c3 60 NIL_60    0.000
888 C_2850 21.391 -0.056 4.593 c3 60 NIL_60    0.000
889 N 23.131 0.141 6.529 n 60 NIL_60    0.000
890 C_2847 22.362 -1.358 3.289 c3 60 NIL_60    0.000
891 N 21.851 -0.607 3.243 n 60 NIL_60    0.000
892 C_2852 22.810 -2.789 2.443 c 60 NIL_60    0.000
893 O 23.410 -3.747 2.866 o 60 NIL_60    0.000
894 H_2847 23.845 -0.590 2.942 h1 60 NIL_60    0.000
895 H_28501 20.321 -0.244 4.674 h1 60 NIL_60    0.000
896 H_28502 21.557 1.026 4.611 h1 60 NIL_60    0.000
897 H_28481 22.174 -2.784 5.145 hc 60 NIL_60    0.000
898 H_28482 23.756 -2.282 5.731 hc 60 NIL_60    0.000
899 C_3520 22.261 -5.636 -8.932 c3 61 NIL_61    0.000
900 C_3007 20.909 -5.136 -9.469 c3 61 NIL_61    0.000
901 C_3006 21.044 -3.708 -10.017 c3 61 NIL_61    0.000
902 H_30061 21.747 -3.697 -10.853 h1 61 NIL_61    0.000
903 H_30062 20.069 -3.363 -10.372 h1 61 NIL_61    0.000
904 H_30071 20.560 -5.806 -10.256 hc 61 NIL_61    0.000
905 H_30072 20.171 -5.149 -8.665 hc 61 NIL_61    0.000
906 H_35201 22.725 -4.990 -8.233 hc 61 NIL_61    0.000
907 H_35202 22.992 -5.707 -9.732 hc 61 NIL_61    0.000
908 H_35203 22.141 -6.620 -8.475 hc 61 NIL_61    0.000
909 C_262 25.107 -0.245 19.435 c 62 NIL_62    0.000
910 C_257 24.763 1.165 18.979 c3 62 NIL_62    0.000
911 O 26.188 -0.640 19.823 o 62 NIL_62    0.000
912 N 25.388 1.629 17.737 n3 62 NIL_62    0.000
913 C_258 23.259 1.238 18.625 c3 62 NIL_62    0.000
914 C_260 24.537 2.728 17.231 c3 62 NIL_62    0.000
915 C_259 23.078 2.379 17.599 c3 62 NIL_62    0.000
916 N 22.300 1.945 16.414 n 62 NIL_62    0.000
917 C_271 22.427 3.559 18.303 c 62 NIL_62    0.000
918 O 23.069 4.349 18.965 o 62 NIL_62    0.000
919 H_2601 24.655 2.855 16.153 h1 62 NIL_62    0.000
920 H_2602 24.815 3.654 17.740 h1 62 NIL_62    0.000
921 H_2581 22.954 0.297 18.163 hc 62 NIL_62    0.000
922 H_2582 22.646 1.399 19.515 hc 62 NIL_62    0.000
923 H_257 24.985 1.862 19.790 h1 62 NIL_62    0.000
924 N 23.215 -0.997 -3.923 n 63 NIL_63    0.000
925 C_2946 21.834 -1.301 -4.364 c3 63 NIL_63    0.000
926 C_2945 21.812 -2.622 -5.194 c3 63 NIL_63    0.000
927 C_2947 21.306 -0.371 -5.525 c3 63 NIL_63    0.000
928 C_2958 20.928 -1.444 -3.078 c 63 NIL_63    0.000
929 C_2944 22.222 -2.273 -6.660 c3 63 NIL_63    0.000
930 N 21.350 -1.060 -6.871 n 63 NIL_63    0.000
931 O 19.800 -1.884 -3.175 o 63 NIL_63    0.000
932 C_2949 21.819 -3.259 -7.739 c 63 NIL_63    0.000
933 O 21.640 -4.396 -7.429 o 63 NIL_63    0.000
934 H_2944 23.311 -2.191 -6.715 h1 63 NIL_63    0.000
935 H_29471 20.281 -0.238 -5.518 h1 63 NIL_63    0.000
936 H_29472 21.446 1.062 -4.905 h1 63 NIL_63    0.000
937 H_29451 20.789 -3.005 -5.206 hc 63 NIL_63    0.000
938 H_29452 22.462 -3.384 -4.758 hc 63 NIL_63    0.000
939 C_1480 11.167 5.219 5.729 c3 64 NIL_64    0.000
940 C_1481 11.526 5.083 4.243 c3 64 NIL_64    0.000
941 C_3528 12.173 3.720 3.972 c3 64 NIL_64    0.000
942 H_35281 11.485 2.938 4.208 hc 64 NIL_64    0.000
943 H_35282 12.962 3.911 4.088 hc 64 NIL_64    0.000
944 H_35283 12.380 3.600 2.934 hc 64 NIL_64    0.000
945 H_14811 12.127 5.754 4.243 hc 64 NIL_64    0.000
946 H_14812 10.627 5.185 3.633 hc 64 NIL_64    0.000
947 H_14801 10.738 6.207 5.912 h1 64 NIL_64    0.000
948 H_14802 10.424 4.460 5.989 h1 64 NIL_64    0.000
949 C_2948 21.508 -0.458 -8.233 c 65 NIL_65    0.000
950 C_2937 21.669 -1.405 -9.481 c3 65 NIL_65    0.000
951 O 21.188 0.701 -8.378 o 65 NIL_65    0.000
952 C_2936 23.023 -1.269 -10.259 c3 65 NIL_65    0.000
953 C_2938 20.671 -1.118 -10.696 c3 65 NIL_65    0.000
954 N 21.526 -2.791 -8.986 n 65 NIL_65    0.000
955 C_2935 22.747 -0.877 -11.758 c3 65 NIL_65    0.000
956 N 21.359 -1.125 -12.043 n 65 NIL_65    0.000
957 C_2939 23.636 -1.480 -12.833 c 65 NIL_65    0.000
958 O 24.755 -1.850 -12.560 o 65 NIL_65    0.000
959 H_2935 22.881 0.205 -11.849 h1 65 NIL_65    0.000
960 H_29381 19.870 -1.861 -10.702 h1 65 NIL_65    0.000
961 H_29382 20.225 -0.130 -10.561 h1 65 NIL_65    0.000
962 H_29361 23.542 -2.230 -10.231 hc 65 NIL_65    0.000
963 H_29362 23.667 -0.526 -9.785 hc 65 NIL_65    0.000
964 C_1297 17.058 5.058 -17.895 c 66 NIL_66    0.000
965 C_1292 15.831 5.546 -16.958 c3 66 NIL_66    0.000
966 O 16.847 4.240 -18.768 o 66 NIL_66    0.000
967 NH 18.376 5.551 -17.734 n 66 NIL_66    0.000
968 N 14.371 5.007 -17.090 n 66 NIL_66    0.000
969 C_1293 16.198 5.302 -15.438 c3 66 NIL_66    0.000
970 C_3668 19.722 5.351 -18.534 c3 66 NIL_66    0.000
971 C_1295 14.043 4.432 -15.728 c3 66 NIL_66    0.000
972 C_1294 14.912 5.066 -14.573 c3 66 NIL_66    0.000
973 C_3656 20.514 3.940 -18.381 c2 66 NIL_66    0.000
974 N 14.348 6.350 -14.098 n 66 NIL_66    0.000
975 C_1306 15.192 4.158 -13.318 c 66 NIL_66    0.000
976 C_3654 21.549 3.576 -19.159 c2 66 NIL_66    0.000
977 C_3658 20.233 2.986 -17.478 c2 66 NIL_66    0.000
978 C_3544 14.440 7.382 -15.127 c3 66 NIL_66    0.000
979 O 15.879 3.163 -13.430 o 66 NIL_66    0.000
980 C_3652 22.213 2.399 -19.064 c2 66 NIL_66    0.000
981 C_3660 20.897 1.809 -17.376 c2 66 NIL_66    0.000
982 C_3546 15.888 7.831 -15.361 c3 66 NIL_66    0.000
983 C_3574 21.922 1.446 -18.164 c2 66 NIL_66    0.000
984 C_3548 15.941 8.849 -16.507 c3 66 NIL_66    0.000
985 C_2831 22.581 0.114 -18.090 c 66 NIL_66    0.000
986 O 23.372 -0.249 -18.937 o 66 NIL_66    0.000
987 H_35481 15.360 9.737 -16.251 hc 66 NIL_66    0.000
988 H_35482 15.528 8.412 -17.419 hc 66 NIL_66    0.000
989 H_35483 16.972 9.148 -16.700 hc 66 NIL_66    0.000
990 H_35461 16.472 7.070 -15.684 hc 66 NIL_66    0.000
991 H_35462 16.289 8.275 -14.447 hc 66 NIL_66    0.000
992 H_3660 20.564 1.110 -16.630 ha 66 NIL_66    0.000
993 H_3652 23.021 2.209 -19.766 ha 66 NIL_66    0.000
994 H_35441 13.840 8.242 -14.818 h1 66 NIL_66    0.000
995 H_35442 14.028 6.983 -16.058 h1 66 NIL_66    0.000
996 H_3658 19.411 3.166 -16.791 ha 66 NIL_66    0.000
997 H_3654 21.869 4.274 -19.928 ha 66 NIL_66    0.000
998 H_12951 14.258 3.366 -15.752 h1 66 NIL_66    0.000
999 H_12952 12.980 4.580 -15.518 h1 66 NIL_66    0.000
1000 H_36681 20.401 6.152 -18.234 h1 66 NIL_66    0.000
1001 H_36682 19.494 5.497 -19.594 h1 66 NIL_66    0.000
1002 H_12931 16.822 4.412 -15.376 hc 66 NIL_66    0.000
1003 H_12932 16.817 6.039 -14.971 hc 66 NIL_66    0.000
1004 H_1292 15.775 6.628 -17.110 h1 66 NIL_66    0.000
1005 HH 18.479 6.216 -16.982 hn 66 NIL_66    0.000
1006 C_1343 13.554 4.870 11.869 c3 67 NIL_67    0.000
1007 NH 12.699 5.202 13.019 n 67 NIL_67    0.000
1008 C_1335 13.131 5.481 10.406 c3 67 NIL_67    0.000
1009 C_1323 13.306 4.736 8.950 c3 67 NIL_67    0.000
1010 C_1319 12.153 5.020 7.969 c 67 NIL_67    0.000
1011 NH 14.569 4.875 8.171 n 67 NIL_67    0.000
1012 O 11.039 5.219 8.408 o 67 NIL_67    0.000
1013 H_1323 13.209 3.666 9.150 h1 67 NIL_67    0.000
1014 H_13351 12.056 5.655 10.490 hc 67 NIL_67    0.000
1015 H_13352 13.569 6.479 10.325 hc 67 NIL_67    0.000
1016 H_13431 13.549 3.781 11.785 h1 67 NIL_67    0.000
1017 H_13432 14.578 5.177 12.099 h1 67 NIL_67    0.000
1018 HH 15.410 4.861 8.729 hn 67 NIL_67    0.000
1019 HH 12.060 5.979 12.943 hn 67 NIL_67    0.000
1020 N 13.340 -3.874 -11.955 n 68 NIL_68    0.000
1021 C_2355 12.407 -4.895 -11.644 c3 68 NIL_68    0.000
1022 C_2358 13.969 -3.581 -10.544 c3 68 NIL_68    0.000
1023 C_2356 11.852 -4.608 -10.202 c3 68 NIL_68    0.000
1024 C_2360 11.424 -5.153 -12.778 c 68 NIL_68    0.000
1025 C_2357 12.948 -3.846 -9.381 c3 68 NIL_68    0.000
1026 O 10.368 -5.713 -12.568 o 68 NIL_68    0.000
1027 N 12.419 -2.578 -8.829 n 68 NIL_68    0.000
1028 C_2369 13.511 -4.704 -8.179 c 68 NIL_68    0.000
1029 O 14.256 -5.636 -8.399 o 68 NIL_68    0.000
1030 H_23561 10.965 -3.973 -10.273 hc 68 NIL_68    0.000
1031 H_23562 11.569 -5.537 -9.702 hc 68 NIL_68    0.000
1032 H_23581 14.335 -2.530 -10.472 h1 68 NIL_68    0.000
1033 H_23582 14.853 -4.105 -10.475 h1 68 NIL_68    0.000
1034 H_2355 13.004 -5.809 -11.583 h1 68 NIL_68    0.000
1035 O 20.326 1.705 15.385 o 69 NIL_69    0.000
1036 C_3865 20.954 2.070 16.307 c 69 NIL_69    0.000
1037 C_3861 20.240 2.767 17.447 c3 69 NIL_69    0.000
1038 N 21.099 3.720 18.120 n 69 NIL_69    0.000
1039 C_3862 18.958 3.535 17.053 c3 69 NIL_69    0.000
1040 C_3864 20.284 4.828 18.632 c3 69 NIL_69    0.000
1041 C_3863 18.904 4.814 17.927 c3 69 NIL_69    0.000
1042 N 18.794 6.012 17.083 n 69 NIL_69    0.000
1043 C_3869 17.790 4.733 18.969 c 69 NIL_69    0.000
1044 H 19.632 6.276 16.588 hn 69 NIL_69    0.000
1045 O 17.866 3.987 19.923 o 69 NIL_69    0.000
1046 H_38641 20.792 5.776 18.438 h1 69 NIL_69    0.000
1047 H_38642 20.150 4.703 19.710 h1 69 NIL_69    0.000
1048 H_38621 19.020 3.821 16.001 hc 69 NIL_69    0.000
1049 H_38622 18.068 2.917 17.194 hc 69 NIL_69    0.000
1050 H_3861 19.985 1.993 18.176 h1 69 NIL_69    0.000
1051 C_2376 13.841 -5.172 9.084 c3 70 NIL_70    0.000
1052 C_2372 12.535 -4.900 8.315 c 70 NIL_70    0.000
1053 NH 14.947 -4.820 8.150 n 70 NIL_70    0.000
1054 C_2388 14.046 -4.540 10.586 c3 70 NIL_70    0.000
1055 O 11.491 -4.801 8.927 o 70 NIL_70    0.000
1056 C_2396 13.436 -5.053 12.023 c3 70 NIL_70    0.000
1057 NH 14.245 -5.934 12.882 n 70 NIL_70    0.000
1058 H_23961 13.234 -4.161 12.620 h1 70 NIL_70    0.000
1059 H_23962 12.475 -5.541 11.843 h1 70 NIL_70    0.000
1060 H_23881 13.741 -3.495 10.497 hc 70 NIL_70    0.000
1061 H_23882 15.126 -4.496 10.741 hc 70 NIL_70    0.000
1062 H_2376 13.879 -6.260 9.188 h1 70 NIL_70    0.000
1063 HH 14.235 -6.923 12.679 hn 70 NIL_70    0.000
1064 HH 15.854 -4.778 8.591 hn 70 NIL_70    0.000
1065 N 13.614 4.692 2.893 n 71 NIL_71    0.000
1066 C_1312 13.434 5.938 3.408 c3 71 NIL_71    0.000
1067 C_1315 14.184 4.112 4.983 c3 71 NIL_71    0.000
1068 C_1313 13.823 6.232 4.913 c3 71 NIL_71    0.000
1069 C_1317 14.116 6.696 2.330 c 71 NIL_71    0.000
1070 C_1314 13.639 5.009 5.802 c3 71 NIL_71    0.000
1071 O 14.573 7.803 2.530 o 71 NIL_71    0.000
1072 N 12.329 5.043 6.599 n 71 NIL_71    0.000
1073 C_1320 14.749 4.834 6.799 c 71 NIL_71    0.000
1074 O 15.880 4.742 6.369 o 71 NIL_71    0.000
1075 H_13131 14.887 6.464 4.928 hc 71 NIL_71    0.000
1076 H_13132 13.282 7.094 5.310 hc 71 NIL_71    0.000
1077 H_13151 14.554 3.299 4.651 h1 71 NIL_71    0.000
1078 H_13152 11.996 2.447 5.223 h1 71 NIL_71    0.000
1079 H_1312 12.386 6.305 3.057 h1 71 NIL_71    0.000
1080 N 14.725 4.517 -12.060 n 72 NIL_72    0.000
1081 C_1302 13.702 5.507 -11.845 c3 72 NIL_72    0.000
1082 C_1305 14.970 3.896 -10.705 c3 72 NIL_72    0.000
1083 C_1303 13.683 5.883 -10.315 c3 72 NIL_72    0.000
1084 C_1307 13.797 6.626 -12.876 c 72 NIL_72    0.000
1085 C_1304 14.522 4.841 -9.498 c3 72 NIL_72    0.000
1086 O 13.397 7.745 -12.628 o 72 NIL_72    0.000
1087 N 15.694 5.520 -8.914 n 72 NIL_72    0.000
1088 C_1316 13.771 4.136 -8.305 c 72 NIL_72    0.000
1089 O 13.064 3.170 -8.507 o 72 NIL_72    0.000
1090 H_13031 14.120 6.875 -10.175 hc 72 NIL_72    0.000
1091 H_13032 12.654 5.914 -9.951 hc 72 NIL_72    0.000
1092 H_13051 15.805 3.755 -10.765 h1 72 NIL_72    0.000
1093 H_13052 14.401 2.966 -10.658 h1 72 NIL_72    0.000
1094 H_1302 12.753 5.010 -12.067 h1 72 NIL_72    0.000
1095 N 13.472 -4.829 3.363 n 73 NIL_73    0.000
1096 C_2365 12.903 -3.569 3.762 c3 73 NIL_73    0.000
1097 C_2368 13.714 -5.557 4.679 c3 73 NIL_73    0.000
1098 C_2366 13.498 -3.249 5.177 c3 73 NIL_73    0.000
1099 C_2370 13.030 -2.507 2.684 c 73 NIL_73    0.000
1100 C_2367 13.641 -4.593 5.962 c3 73 NIL_73    0.000
1101 O 12.983 -1.327 2.965 o 73 NIL_73    0.000
1102 N 12.514 -4.776 6.934 n 73 NIL_73    0.000
1103 C_2373 14.937 -4.606 6.787 c 73 NIL_73    0.000
1104 O 15.994 -4.396 6.227 o 73 NIL_73    0.000
1105 H_23661 14.482 -2.799 5.052 hc 73 NIL_73    0.000
1106 H_23662 12.991 -2.521 5.765 hc 73 NIL_73    0.000
1107 H_23681 14.701 -6.022 4.636 h1 73 NIL_73    0.000
1108 H_23682 12.968 -6.349 4.784 h1 73 NIL_73    0.000
1109 H_2365 11.829 -3.741 3.877 h1 73 NIL_73    0.000
1110 C_3514 24.080 -1.582 4.541 c3 74 NIL_74    0.000
1111 C_3013 23.858 0.130 4.248 c3 74 NIL_74    0.000
1112 C_3012 24.135 0.595 5.571 c3 74 NIL_74    0.000
1113 H_30121 25.118 0.254 5.906 h1 74 NIL_74    0.000
1114 H_30122 24.130 1.688 5.541 h1 74 NIL_74    0.000
1115 H_30131 24.656 0.342 3.485 hc 74 NIL_74    0.000
1116 H_30132 22.934 0.466 3.790 hc 74 NIL_74    0.000
1117 H_35141 24.694 -1.923 4.581 hc 74 NIL_74    0.000
1118 H_35142 23.968 -2.119 3.198 hc 74 NIL_74    0.000
1119 H_35143 23.535 -1.440 4.302 hc 74 NIL_74    0.000
1120 C_1415 13.619 3.931 -5.656 c3 75 NIL_75    0.000
1121 C_1414 13.975 4.872 -4.413 c3 75 NIL_75    0.000
1122 N 14.046 4.551 -6.983 n 75 NIL_75    0.000
1123 C_1413 15.046 5.726 -5.159 c3 75 NIL_75    0.000
1124 N 12.824 5.713 -3.985 n 75 NIL_75    0.000
1125 C_1426 14.624 4.232 -3.127 c 75 NIL_75    0.000
1126 C_1412 14.668 5.797 -6.676 c3 75 NIL_75    0.000
1127 O 15.683 3.642 -3.209 o 75 NIL_75    0.000
1128 C_1417 15.817 6.016 -7.649 c 75 NIL_75    0.000
1129 O 16.839 6.573 -7.305 o 75 NIL_75    0.000
1130 H_1412 13.968 6.619 -6.835 h1 75 NIL_75    0.000
1131 H_14131 16.009 5.218 -5.078 hc 75 NIL_75    0.000
1132 H_14132 15.148 6.717 -4.714 hc 75 NIL_75    0.000
1133 H_14151 14.199 3.012 -5.577 h1 75 NIL_75    0.000
1134 H_14152 12.771 3.549 -5.539 h1 75 NIL_75    0.000
1135 C_2285 15.064 -6.603 15.088 c3 76 NIL_76    0.000
1136 C_766 14.688 -5.516 14.094 c 76 NIL_76    0.000
1137 O 14.717 -4.338 14.381 o 76 NIL_76    0.000
1138 H_22851 14.145 -7.117 15.378 h1 76 NIL_76    0.000
1139 H_22852 15.713 -7.310 14.562 h1 76 NIL_76    0.000
1140 N 14.047 4.416 -1.877 n 77 NIL_77    0.000
1141 C_1422 12.658 4.749 -1.694 c3 77 NIL_77    0.000
1142 C_1425 14.588 4.147 -0.490 c3 77 NIL_77    0.000
1143 C_1423 12.411 5.098 -0.174 c3 77 NIL_77    0.000
1144 C_1427 12.204 5.734 -2.765 c 77 NIL_77    0.000
1145 C_1424 13.704 4.812 0.664 c3 77 NIL_77    0.000
1146 O 11.318 6.537 -2.550 o 77 NIL_77    0.000
1147 C_1428 13.533 3.933 1.933 c 77 NIL_77    0.000
1148 N 14.268 6.103 1.108 n 77 NIL_77    0.000
1149 O 13.420 2.717 1.856 o 77 NIL_77    0.000
1150 H_14231 12.138 6.152 -0.078 hc 77 NIL_77    0.000
1151 H_14232 11.579 4.502 0.209 hc 77 NIL_77    0.000
1152 H_14251 15.616 4.511 -0.425 h1 77 NIL_77    0.000
1153 H_14252 14.591 3.064 -0.343 h1 77 NIL_77    0.000
1154 H_1422 12.100 3.835 -1.908 h1 77 NIL_77    0.000
1155 C_188 14.077 -10.651 18.545 c3 78 NIL_78    0.000
1156 C_112 13.182 -9.853 17.586 c3 78 NIL_78    0.000
1157 H_1121 13.210 -10.305 16.591 h1 78 NIL_78    0.000
1158 H_1122 12.148 -9.865 17.945 h1 78 NIL_78    0.000
1159 H_1881 13.705 -11.672 18.654 hc 78 NIL_78    0.000
1160 H_1882 14.065 -10.182 19.530 hc 78 NIL_78    0.000
1161 H_1883 15.112 -10.688 18.190 hc 78 NIL_78    0.000
1162 N 21.642 -3.472 18.984 n 79 NIL_79    0.000
1163 C_133 22.506 -3.549 17.819 c3 79 NIL_79    0.000
1164 C_136 22.362 -2.764 20.060 c3 79 NIL_79    0.000
1165 C_134 23.947 -3.322 18.318 c3 79 NIL_79    0.000
1166 C_138 22.314 -4.830 17.048 c 79 NIL_79    0.000
1167 C.fc 23.811 -2.454 19.586 c3 79 NIL_79    0.000
1168 O 23.189 -5.295 16.346 o 79 NIL_79    0.000
1169 NH 23.989 -1.017 19.311 n 79 NIL_79    0.000
1170 H.fc 24.537 -2.760 20.343 h1 79 NIL_79    0.000
1171 H_1341 24.565 -2.837 17.562 hc 79 NIL_79    0.000
1172 H_1342 24.395 -4.282 18.582 hc 79 NIL_79    0.000
1173 H_1361 22.392 -3.413 20.940 h1 79 NIL_79    0.000
1174 H_1362 21.836 -1.839 20.306 h1 79 NIL_79    0.000
1175 H_133 22.228 -2.732 17.148 h1 79 NIL_79    0.000
1176 HH 23.159 -0.551 18.977 hn 79 NIL_79    0.000
1177 C_737 11.225 -3.666 19.716 c3 80 NIL_80    0.000
1178 C.fb 10.876 -5.079 19.169 c3 80 NIL_80    0.000
1179 N 11.086 -2.675 18.630 n 80 NIL_80    0.000
1180 C_735 10.231 -4.753 17.806 c3 80 NIL_80    0.000
1181 NH 12.069 -5.937 19.043 n 80 NIL_80    0.000
1182 C_734 10.806 -3.382 17.396 c3 80 NIL_80    0.000
1183 C_739 9.922 -2.594 16.462 c 80 NIL_80    0.000
1184 O 9.248 -3.134 15.608 o 80 NIL_80    0.000
1185 H_734 11.760 -3.530 16.880 h1 80 NIL_80    0.000
1186 H_7351 10.430 -5.523 17.057 hc 80 NIL_80    0.000
1187 H_7352 9.149 -4.662 17.936 hc 80 NIL_80    0.000
1188 H.fb 10.154 -5.576 19.821 h1 80 NIL_80    0.000
1189 H_7371 10.530 -3.402 20.516 h1 80 NIL_80    0.000
1190 H_7372 12.248 -3.651 20.100 h1 80 NIL_80    0.000
1191 HH 12.901 -5.460 18.732 hn 80 NIL_80    0.000
1192 C_2526 10.750 -4.768 -4.857 c3 81 NIL_81    0.000
1193 C_2527 10.427 -3.326 -5.312 c3 81 NIL_81    0.000
1194 C_3504 9.484 -3.355 -6.531 c3 81 NIL_81    0.000
1195 H_35041 9.302 -2.336 -6.881 hc 81 NIL_81    0.000
1196 H_35042 8.533 -3.800 -6.239 hc 81 NIL_81    0.000
1197 H_35043 9.906 -3.937 -7.354 hc 81 NIL_81    0.000
1198 H_25271 11.274 -2.804 -5.598 hc 81 NIL_81    0.000
1199 H_25272 10.036 -2.751 -4.529 hc 81 NIL_81    0.000
1200 H_25261 9.831 -5.220 -4.480 h1 81 NIL_81    0.000
1201 H_25262 11.122 -5.367 -5.695 h1 81 NIL_81    0.000
1202 C_2858 22.235 0.011 8.929 c3 82 NIL_82    0.000
1203 C_2854 23.253 0.467 7.866 c 82 NIL_82    0.000
1204 NH 21.413 -1.055 8.291 n 82 NIL_82    0.000
1205 C_2870 22.900 -0.202 10.421 c3 82 NIL_82    0.000
1206 O 24.205 1.137 8.210 o 82 NIL_82    0.000
1207 C_2878 22.144 -0.026 11.868 c3 82 NIL_82    0.000
1208 NH 22.921 0.464 13.022 n 82 NIL_82    0.000
1209 H_28781 21.330 0.690 11.720 h1 82 NIL_82    0.000
1210 H_28782 21.688 -0.980 12.143 h1 82 NIL_82    0.000
1211 H_28701 23.710 0.529 10.455 hc 82 NIL_82    0.000
1212 H_28702 23.396 -1.174 10.425 hc 82 NIL_82    0.000
1213 H_2858 21.567 0.871 9.021 h1 82 NIL_82    0.000
1214 HH 23.927 0.382 13.010 hn 82 NIL_82    0.000
1215 HH 20.804 -1.548 8.926 hn 82 NIL_82    0.000
1216 C_1478 14.955 6.781 0.014 c3 83 NIL_83    0.000
1217 C_1479 13.962 7.362 -1.005 c3 83 NIL_83    0.000
1218 C_3530 13.076 8.422 -0.336 c3 83 NIL_83    0.000
1219 H_35301 12.511 7.978 0.487 hc 83 NIL_83    0.000
1220 H_35302 12.371 8.837 -1.059 hc 83 NIL_83    0.000
1221 H_35303 13.694 9.232 0.057 hc 83 NIL_83    0.000
1222 H_14791 13.337 6.565 -1.409 hc 83 NIL_83    0.000
1223 H_14792 14.508 7.811 -1.836 hc 83 NIL_83    0.000
1224 H_14781 15.601 6.058 -0.486 h1 83 NIL_83    0.000
1225 H_14782 15.572 7.583 0.425 h1 83 NIL_83    0.000
1226 C_3010 22.386 -3.566 0.349 c3 84 NIL_84    0.000
1227 C_3011 23.527 -3.516 -0.679 c3 84 NIL_84    0.000
1228 C_3516 24.884 -3.637 0.028 c3 84 NIL_84    0.000
1229 H_35161 25.018 -2.816 0.736 hc 84 NIL_84    0.000
1230 H_35162 25.695 -3.601 -0.702 hc 84 NIL_84    0.000
1231 H_35163 24.944 -4.581 0.574 hc 84 NIL_84    0.000
1232 H_30111 23.484 -2.579 -1.237 hc 84 NIL_84    0.000
1233 H_30112 23.412 -4.335 -1.392 hc 84 NIL_84    0.000
1234 H_30101 21.426 -3.525 -0.166 h1 84 NIL_84    0.000
1235 H_30102 22.447 -4.508 0.900 h1 84 NIL_84    0.000
1236 C_1477 11.318 6.102 -5.933 c3 85 NIL_85    0.000
1237 C_1476 12.422 6.661 -5.024 c3 85 NIL_85    0.000
1238 C_3532 11.763 4.809 -6.628 c3 85 NIL_85    0.000
1239 H_35321 12.607 4.990 -7.205 hc 85 NIL_85    0.000
1240 H_35322 10.977 4.448 -7.293 hc 85 NIL_85    0.000
1241 H_35323 11.741 4.167 -5.976 hc 85 NIL_85    0.000
1242 H_14761 13.294 6.912 -5.627 h1 85 NIL_85    0.000
1243 H_14762 12.053 7.572 -4.543 h1 85 NIL_85    0.000
1244 H_14771 11.056 6.852 -6.685 hc 85 NIL_85    0.000
1245 H_14772 10.431 5.895 -5.330 hc 85 NIL_85    0.000
1246 C_1472 17.380 4.102 -9.999 c3 86 NIL_86    0.000
1247 C_1471 16.817 5.521 -9.844 c3 86 NIL_86    0.000
1248 C_3542 18.425 4.050 -11.120 c3 86 NIL_86    0.000
1249 H_35421 18.776 3.025 -11.256 hc 86 NIL_86    0.000
1250 H_35422 19.280 4.684 -10.873 hc 86 NIL_86    0.000
1251 H_35423 17.992 4.399 -12.060 hc 86 NIL_86    0.000
1252 H_14711 17.594 6.193 -9.473 h1 86 NIL_86    0.000
1253 H_14712 16.464 5.882 -10.813 h1 86 NIL_86    0.000
1254 H_14721 16.785 3.316 -10.082 hc 86 NIL_86    0.000
1255 H_14722 17.819 3.773 -9.058 hc 86 NIL_86    0.000
1256 C_660 26.790 2.037 17.915 c3 87 NIL_87    0.000
1257 C_662 26.870 3.251 18.853 c3 87 NIL_87    0.000
1258 H_6621 26.285 4.081 18.452 hc 87 NIL_87    0.000
1259 H_6622 27.902 3.587 18.958 hc 87 NIL_87    0.000
1260 H_6623 26.485 2.992 19.840 hc 87 NIL_87    0.000
1261 H_6601 27.214 2.305 16.943 h1 87 NIL_87    0.000
1262 H_6602 27.366 1.205 18.332 h1 87 NIL_87    0.000
1263 C_3009 24.212 -0.037 -5.971 c3 88 NIL_88    0.000
1264 C_3008 24.185 -1.217 -4.990 c3 88 NIL_88    0.000
1265 C_3518 22.867 0.166 -6.623 c3 88 NIL_88    0.000
1266 H_35181 22.527 -0.055 -6.444 hc 88 NIL_88    0.000
1267 H_35182 22.859 -0.687 -7.237 hc 88 NIL_88    0.000
1268 H_35183 22.844 0.985 -7.315 hc 88 NIL_88    0.000
1269 H_30081 23.924 -2.134 -5.519 h1 88 NIL_88    0.000
1270 H_30082 25.174 -1.344 -4.541 h1 88 NIL_88    0.000
1271 H_30091 24.959 -0.219 -6.747 hc 88 NIL_88    0.000
1272 H_30092 24.492 0.876 -5.442 hc 88 NIL_88    0.000
1273 C_2299 11.868 4.918 15.307 c3 89 NIL_89    0.000
1274 C_309 12.772 4.489 14.169 c 89 NIL_89    0.000
1275 O 13.544 3.571 14.253 o 89 NIL_89    0.000
1276 H_22991 12.235 5.812 15.584 h1 89 NIL_89    0.000
1277 H_22992 10.878 5.037 14.883 h1 89 NIL_89    0.000
1278 C_769 11.771 7.047 16.534 c3 90 NIL_90    0.000
1279 C_770 11.264 7.154 15.079 c3 90 NIL_90    0.000
1280 H_7701 10.799 6.269 14.759 hc 90 NIL_90    0.000
1281 H_7702 12.094 7.372 14.403 hc 90 NIL_90    0.000
1282 H_7703 10.525 7.948 15.002 hc 90 NIL_90    0.000
1283 H_7691 12.513 6.246 16.696 h1 90 NIL_90    0.000
1284 H_7692 12.285 7.957 16.814 h1 90 NIL_90    0.000
1285 C_3691 2.634 16.782 -19.171 c2 91 NIL_91    0.000
1286 C_3689 3.321 17.946 -19.078 c2 91 NIL_91    0.000
1287 C_3693 2.821 15.716 -18.372 c2 91 NIL_91    0.000
1288 C_3585 4.274 18.178 -18.166 c2 91 NIL_91    0.000
1289 C_3695 3.773 15.958 -17.458 c2 91 NIL_91    0.000
1290 C_3705 1.997 14.326 -18.511 c3 91 NIL_91    0.000
1291 C_1296 5.105 19.409 -18.090 c 91 NIL_91    0.000
1292 C_3697 4.460 17.120 -17.360 c2 91 NIL_91    0.000
1293 NH 2.540 13.102 -17.681 n 91 NIL_91    0.000
1294 O 5.035 20.284 -18.930 o 91 NIL_91    0.000
1295 C_2350 3.584 12.168 -17.888 c 91 NIL_91    0.000
1296 C_2345 3.865 10.934 -16.891 c3 91 NIL_91    0.000
1297 O 4.306 12.301 -18.855 o 91 NIL_91    0.000
1298 N 4.950 9.853 -17.016 n 91 NIL_91    0.000
1299 C_2346 4.062 11.499 -15.396 c3 91 NIL_91    0.000
1300 C_2348 5.508 9.683 -15.617 c3 91 NIL_91    0.000
1301 C_2347 4.625 10.363 -14.493 c3 91 NIL_91    0.000
1302 N 3.499 9.516 -14.050 n 91 NIL_91    0.000
1303 C_2359 5.421 10.869 -13.228 c 91 NIL_91    0.000
1304 C_3508 2.609 9.219 -15.168 c3 91 NIL_91    0.000
1305 O 6.328 11.664 -13.366 o 91 NIL_91    0.000
1306 C_3510 1.887 10.478 -15.675 c3 91 NIL_91    0.000
1307 C_3512 1.062 11.125 -14.576 c3 91 NIL_91    0.000
1308 H_35121 0.326 10.416 -14.193 hc 91 NIL_91    0.000
1309 H_35122 0.537 12.002 -14.962 hc 91 NIL_91    0.000
1310 H_35123 1.708 11.440 -13.754 hc 91 NIL_91    0.000
1311 H_35101 1.255 10.214 -16.528 hc 91 NIL_91    0.000
1312 H_35102 2.582 11.217 -16.017 hc 91 NIL_91    0.000
1313 H_35081 1.866 8.487 -14.844 h1 91 NIL_91    0.000
1314 H_35082 3.202 8.782 -15.975 h1 91 NIL_91    0.000
1315 H_23481 6.467 10.152 -15.570 h1 91 NIL_91    0.000
1316 H_23482 5.622 8.618 -15.400 h1 91 NIL_91    0.000
1317 H_23461 4.769 12.312 -15.446 hc 91 NIL_91    0.000
1318 H_23462 3.120 11.901 -14.982 hc 91 NIL_91    0.000
1319 H_2345 2.903 10.372 -16.908 h1 91 NIL_91    0.000
1320 H_3697 5.210 17.186 -16.609 ha 91 NIL_91    0.000
1321 H_37051 0.964 14.503 -18.202 h1 91 NIL_91    0.000
1322 H_37052 1.981 14.031 -19.564 h1 91 NIL_91    0.000
1323 H_3695 4.016 15.164 -16.756 ha 91 NIL_91    0.000
1324 H_3689 3.095 18.733 -19.795 ha 91 NIL_91    0.000
1325 H_3691 1.884 16.697 -19.952 ha 91 NIL_91    0.000
1326 HH 1.995 12.933 -16.848 hn 91 NIL_91    0.000
1327 C_3522 15.727 12.102 -15.152 c3 92 NIL_92    0.000
1328 N 14.885 12.649 -14.095 n 92 NIL_92    0.000
1329 C_3524 17.115 11.758 -14.604 c3 92 NIL_92    0.000
1330 C_2829 13.518 12.943 -14.579 c3 92 NIL_92    0.000
1331 C_3526 17.792 13.037 -14.091 c3 92 NIL_92    0.000
1332 C_2828 13.013 11.791 -15.505 c3 92 NIL_92    0.000
1333 C_2830 13.497 14.080 -15.683 c3 92 NIL_92    0.000
1334 C_2841 12.583 13.138 -13.328 c 92 NIL_92    0.000
1335 C_2827 13.480 12.022 -16.991 c3 92 NIL_92    0.000
1336 N 13.753 13.556 -17.087 n 92 NIL_92    0.000
1337 O 11.380 13.204 -13.477 o 92 NIL_92    0.000
1338 C_2832 12.489 11.207 -17.970 c 92 NIL_92    0.000
1339 O 12.018 11.762 -18.942 o 92 NIL_92    0.000
1340 NH 12.158 9.852 -17.731 n 92 NIL_92    0.000
1341 C_3643 11.334 8.786 -18.544 c3 92 NIL_92    0.000
1342 C_3631 9.716 8.813 -18.382 c2 92 NIL_92    0.000
1343 C_3629 8.868 8.249 -19.259 c2 92 NIL_92    0.000
1344 C_3633 9.049 9.396 -17.373 c2 92 NIL_92    0.000
1345 C_3627 7.516 8.271 -19.151 c2 92 NIL_92    0.000
1346 C_3635 7.697 9.422 -17.263 c2 92 NIL_92    0.000
1347 C_2378 6.856 8.864 -18.147 c2 92 NIL_92    0.000
1348 C_2349 5.371 8.978 -18.067 c 92 NIL_92    0.000
1349 O 4.659 8.565 -18.958 o 92 NIL_92    0.000
1350 H_3635 7.301 9.935 -16.446 ha 92 NIL_92    0.000
1351 H_3627 6.934 7.798 -19.937 ha 92 NIL_92    0.000
1352 H_3633 9.630 9.892 -16.600 ha 92 NIL_92    0.000
1353 H_3629 9.297 7.748 -20.123 ha 92 NIL_92    0.000
1354 H_36431 11.698 7.797 -18.256 h1 92 NIL_92    0.000
1355 H_36432 11.573 8.927 -19.601 h1 92 NIL_92    0.000
1356 H_2827 14.452 11.536 -17.104 h1 92 NIL_92    0.000
1357 H_28301 12.514 14.546 -15.667 h1 92 NIL_92    0.000
1358 H_28302 14.243 14.841 -15.436 h1 92 NIL_92    0.000
1359 H_28281 11.922 11.805 -15.494 hc 92 NIL_92    0.000
1360 H_28282 13.339 10.818 -15.135 hc 92 NIL_92    0.000
1361 H_35261 18.761 12.804 -13.648 hc 92 NIL_92    0.000
1362 H_35262 17.181 13.539 -13.346 hc 92 NIL_92    0.000
1363 H_35263 17.939 13.737 -14.912 hc 92 NIL_92    0.000
1364 H_35241 17.725 11.307 -15.388 hc 92 NIL_92    0.000
1365 H_35242 17.014 11.036 -13.791 hc 92 NIL_92    0.000
1366 H_35221 15.822 12.848 -15.946 h1 92 NIL_92    0.000
1367 H_35222 15.253 11.205 -15.558 h1 92 NIL_92    0.000
1368 HH 12.564 9.466 -16.891 hn 92 NIL_92    0.000
1369 N 3.497 9.514 -3.788 n 93 NIL_93    0.000
1370 C_2464 4.790 10.053 -4.267 c3 93 NIL_93    0.000
1371 C_2463 4.504 11.376 -5.013 c3 93 NIL_93    0.000
1372 C_2465 5.381 9.278 -5.542 c3 93 NIL_93    0.000
1373 C_2476 5.761 10.255 -3.038 c 93 NIL_93    0.000
1374 C_2462 4.112 10.901 -6.538 c3 93 NIL_93    0.000
1375 N 4.933 9.893 -6.860 n 93 NIL_93    0.000
1376 O 6.865 10.730 -3.217 o 93 NIL_93    0.000
1377 C_2467 3.889 12.018 -7.529 c 93 NIL_93    0.000
1378 O 3.530 13.139 -7.235 o 93 NIL_93    0.000
1379 H_2462 3.067 10.453 -6.433 h1 93 NIL_93    0.000
1380 H_24651 6.472 9.318 -5.501 h1 93 NIL_93    0.000
1381 H_24652 5.067 8.230 -5.515 h1 93 NIL_93    0.000
1382 H_24631 5.376 11.988 -5.083 hc 93 NIL_93    0.000
1383 H_24632 3.699 11.959 -4.517 hc 93 NIL_93    0.000
1384 C_268 7.364 21.866 18.154 c3 94 NIL_94    0.000
1385 C_267 8.201 20.670 17.661 c3 94 NIL_94    0.000
1386 C.fa 6.601 21.358 19.396 c3 94 NIL_94    0.000
1387 N 8.489 19.867 18.833 n 94 NIL_94    0.000
1388 C_272 9.442 21.059 16.899 c 94 NIL_94    0.000
1389 C_270 7.450 20.134 19.845 c3 94 NIL_94    0.000
1390 NH 5.211 20.972 19.098 n 94 NIL_94    0.000
1391 O 9.471 22.031 16.172 o 94 NIL_94    0.000
1392 H_2701 7.932 20.344 20.802 h1 94 NIL_94    0.000
1393 H_2702 6.813 19.252 19.948 h1 94 NIL_94    0.000
1394 H.fa 6.595 22.125 20.175 h1 94 NIL_94    0.000
1395 H_267 7.596 20.056 16.987 h1 94 NIL_94    0.000
1396 H_2681 6.687 22.240 17.383 hc 94 NIL_94    0.000
1397 H_2682 8.039 22.669 18.456 hc 94 NIL_94    0.000
1398 HH 5.117 20.057 18.694 hn 94 NIL_94    0.000
1399 C_2530 2.990 9.782 6.275 c3 95 NIL_95    0.000
1400 C_2531 2.822 11.276 5.962 c3 95 NIL_95    0.000
1401 C_3500 1.506 11.522 5.216 c3 95 NIL_95    0.000
1402 H_35001 1.496 10.972 4.273 hc 95 NIL_95    0.000
1403 H_35002 1.385 12.586 5.001 hc 95 NIL_95    0.000
1404 H_35003 0.660 11.189 5.822 hc 95 NIL_95    0.000
1405 H_25311 3.528 11.604 5.301 hc 95 NIL_95    0.000
1406 H_25312 2.833 11.848 6.892 hc 95 NIL_95    0.000
1407 H_25301 2.179 9.458 6.932 h1 95 NIL_95    0.000
1408 H_25302 2.945 9.207 5.347 h1 95 NIL_95    0.000
1409 C_728 1.712 19.830 17.034 c3 96 NIL_96    0.000
1410 C_727 2.614 18.669 17.499 c3 96 NIL_96    0.000
1411 N 2.397 21.076 17.436 n3 96 NIL_96    0.000
1412 C_726 3.388 19.329 18.667 c3 96 NIL_96    0.000
1413 N 3.505 18.231 16.402 n 96 NIL_96    0.000
1414 C_738 1.779 17.512 18.030 c 96 NIL_96    0.000
1415 C_725 2.906 20.798 18.786 c3 96 NIL_96    0.000
1416 O 0.694 17.681 18.547 o 96 NIL_96    0.000
1417 C_729 4.053 21.671 19.279 c 96 NIL_96    0.000
1418 O 3.972 22.792 19.737 o 96 NIL_96    0.000
1419 H_725 2.085 20.857 19.506 h1 96 NIL_96    0.000
1420 H_7261 4.452 19.303 18.441 hc 96 NIL_96    0.000
1421 H_7262 3.223 18.793 19.604 hc 96 NIL_96    0.000
1422 H_7281 1.537 19.802 15.956 h1 96 NIL_96    0.000
1423 H_7282 0.757 19.771 17.561 h1 96 NIL_96    0.000
1424 C_2960 13.192 13.972 1.953 c 97 NIL_97    0.000
1425 C_2956 13.696 13.100 0.739 c3 97 NIL_97    0.000
1426 O 12.383 14.859 1.768 o 97 NIL_97    0.000
1427 C_2955 14.829 13.756 -0.114 c3 97 NIL_97    0.000
1428 C_2957 12.631 12.852 -0.431 c3 97 NIL_97    0.000
1429 N 14.203 11.827 1.305 n 97 NIL_97    0.000
1430 C_2954 14.352 13.942 -1.599 c3 97 NIL_97    0.000
1431 N 13.188 13.124 -1.814 n 97 NIL_97    0.000
1432 C_2959 15.381 13.725 -2.695 c 97 NIL_97    0.000
1433 O 16.562 13.910 -2.484 o 97 NIL_97    0.000
1434 H_2954 14.015 14.975 -1.712 h1 97 NIL_97    0.000
1435 H_29571 12.271 11.822 -0.388 h1 97 NIL_97    0.000
1436 H_29572 11.777 13.517 -0.274 h1 97 NIL_97    0.000
1437 H_29551 15.698 13.094 -0.103 hc 97 NIL_97    0.000
1438 H_29552 15.129 14.713 0.312 hc 97 NIL_97    0.000
1439 N 9.557 8.138 18.082 n 98 NIL_98    0.000
1440 C_3832 9.307 9.395 17.403 c3 98 NIL_98    0.000
1441 C_3835 10.947 8.116 18.570 c3 98 NIL_98    0.000
1442 C_3833 10.692 9.963 17.022 c3 98 NIL_98    0.000
1443 C_3837 8.362 9.222 16.234 c 98 NIL_98    0.000
1444 C_3834 11.726 9.315 17.969 c3 98 NIL_98    0.000
1445 O 8.411 9.931 15.250 o 98 NIL_98    0.000
1446 N 12.881 8.823 17.204 n 98 NIL_98    0.000
1447 C_3841 12.152 10.275 19.074 c 98 NIL_98    0.000
1448 H 12.747 7.956 16.705 hn 98 NIL_98    0.000
1449 O 11.448 10.492 20.039 o 98 NIL_98    0.000
1450 H_38331 10.928 9.666 15.999 hc 98 NIL_98    0.000
1451 H_38332 10.715 11.053 17.086 hc 98 NIL_98    0.000
1452 H_38351 11.421 7.181 18.261 h1 98 NIL_98    0.000
1453 H_38352 10.953 8.186 19.661 h1 98 NIL_98    0.000
1454 H_3832 8.822 10.066 18.116 h1 98 NIL_98    0.000
1455 C_3502 6.976 13.644 1.314 c3 99 NIL_99    0.000
1456 C_2529 6.457 12.893 0.080 c3 99 NIL_99    0.000
1457 C_2528 5.024 12.399 0.324 c3 99 NIL_99    0.000
1458 H_25281 4.392 13.246 0.600 h1 99 NIL_99    0.000
1459 H_25282 4.637 11.956 -0.597 h1 99 NIL_99    0.000
1460 H_25291 6.473 13.562 -0.782 hc 99 NIL_99    0.000
1461 H_25292 7.126 12.079 -0.134 hc 99 NIL_99    0.000
1462 H_35021 6.991 12.983 2.182 hc 99 NIL_99    0.000
1463 H_35022 6.330 14.495 1.538 hc 99 NIL_99    0.000
1464 H_35023 7.988 14.013 1.139 hc 99 NIL_99    0.000
1465 C_3887 1.582 15.005 18.124 c3 100 NIL_100    0.000
1466 C_3886 2.426 13.816 17.593 c3 100 NIL_100    0.000
1467 N 2.281 16.270 17.846 n 100 NIL_100    0.000
1468 C_3885 3.603 14.520 16.873 c3 100 NIL_100    0.000
1469 N 1.632 13.035 16.632 n 100 NIL_100    0.000
1470 C_3892 2.908 12.962 18.764 c 100 NIL_100    0.000
1471 C_3884 3.616 15.988 17.356 c3 100 NIL_100    0.000
1472 H 1.026 13.567 16.025 hn 100 NIL_100    0.000
1473 O 3.271 13.460 19.810 o 100 NIL_100    0.000
1474 C_3888 4.052 16.994 16.311 c 100 NIL_100    0.000
1475 O 4.786 16.677 15.418 o 100 NIL_100    0.000
1476 H_3884 4.301 16.084 18.202 h1 100 NIL_100    0.000
1477 H_38851 3.421 14.502 15.795 hc 100 NIL_100    0.000
1478 H_38852 4.555 14.024 17.070 hc 100 NIL_100    0.000
1479 H_38871 0.611 15.020 17.623 h1 100 NIL_100    0.000
1480 H_38872 1.430 14.907 19.201 h1 100 NIL_100    0.000
1481 C_2292 14.863 15.678 15.312 c3 101 NIL_101    0.000
1482 C_243 14.029 15.239 14.116 c 101 NIL_101    0.000
1483 O 12.855 15.289 14.068 o 101 NIL_101    0.000
1484 H_22921 15.415 14.806 15.673 h1 101 NIL_101    0.000
1485 H_22922 15.570 16.435 14.964 h1 101 NIL_101    0.000
1486 C_2474 5.069 10.029 0.838 c3 102 NIL_102    0.000
1487 C_2473 3.771 9.614 0.059 c3 102 NIL_102    0.000
1488 C_2475 6.076 10.063 -0.408 c3 102 NIL_102    0.000
1489 C_2478 5.394 9.054 2.040 c 102 NIL_102    0.000
1490 N 4.956 11.398 1.386 n 102 NIL_102    0.000
1491 C_2472 4.170 9.206 -1.405 c3 102 NIL_102    0.000
1492 N 5.364 9.932 -1.741 n 102 NIL_102    0.000
1493 O 5.815 7.937 1.816 o 102 NIL_102    0.000
1494 C_2477 3.114 9.267 -2.499 c 102 NIL_102    0.000
1495 O 1.944 9.076 -2.240 o 102 NIL_102    0.000
1496 H_2472 4.472 8.156 -1.369 h1 102 NIL_102    0.000
1497 H_24751 6.626 10.964 -0.400 h1 102 NIL_102    0.000
1498 H_24752 6.775 9.227 -0.324 h1 102 NIL_102    0.000
1499 H_24731 3.095 10.471 0.018 hc 102 NIL_102    0.000
1500 H_24732 3.252 8.795 0.564 hc 102 NIL_102    0.000
1501 C_2521 3.949 12.704 -9.880 c3 103 NIL_103    0.000
1502 C_2522 5.076 12.842 -10.878 c3 103 NIL_103    0.000
1503 C_3506 6.401 13.248 -10.114 c3 103 NIL_103    0.000
1504 H_35061 6.660 12.501 -9.347 hc 103 NIL_103    0.000
1505 H_35062 6.233 14.196 -9.643 hc 103 NIL_103    0.000
1506 H_35063 7.232 13.320 -10.814 hc 103 NIL_103    0.000
1507 H_25221 4.899 13.494 -11.654 hc 103 NIL_103    0.000
1508 H_25222 5.194 11.896 -11.441 hc 103 NIL_103    0.000
1509 H_25211 3.808 13.682 -9.415 h1 103 NIL_103    0.000
1510 H_25212 3.040 12.440 -10.426 h1 103 NIL_103    0.000
1511 C_111 6.818 5.911 17.069 c3 104 NIL_104    0.000
1512 C_110 7.335 7.303 17.484 c3 104 NIL_104    0.000
1513 N 5.407 5.824 17.497 n3 104 NIL_104    0.000
1514 C_109 6.224 7.785 18.458 c3 104 NIL_104    0.000
1515 N 7.504 8.176 16.297 n 104 NIL_104    0.000
1516 C_137 8.642 7.156 18.249 c 104 NIL_104    0.000
1517 C_108 5.318 6.563 18.763 c3 104 NIL_104    0.000
1518 O 8.875 6.183 18.934 o 104 NIL_104    0.000
1519 C_113 3.921 7.000 19.198 c 104 NIL_104    0.000
1520 O 3.020 6.274 19.566 o 104 NIL_104    0.000
1521 H_108 5.760 5.976 19.572 h1 104 NIL_104    0.000
1522 H_1091 5.634 8.561 17.961 hc 104 NIL_104    0.000
1523 H_1092 6.645 8.206 19.375 hc 104 NIL_104    0.000
1524 H_1111 6.912 5.763 15.990 h1 104 NIL_104    0.000
1525 H_1112 7.393 5.147 17.598 h1 104 NIL_104    0.000
1526 C_2855 12.970 12.982 6.943 c 105 NIL_105    0.000
1527 C_2849 13.885 13.563 5.845 c3 105 NIL_105    0.000
1528 O 12.071 12.232 6.620 o 105 NIL_105    0.000
1529 C_2848 14.045 12.000 5.823 c3 105 NIL_105    0.000
1530 C_2850 13.141 14.233 4.593 c3 105 NIL_105    0.000
1531 N 14.881 14.430 6.529 n 105 NIL_105    0.000
1532 C_2847 14.112 12.931 3.289 c3 105 NIL_105    0.000
1533 N 13.601 13.682 3.243 n 105 NIL_105    0.000
1534 C_2852 14.560 11.500 2.443 c 105 NIL_105    0.000
1535 O 15.160 10.542 2.866 o 105 NIL_105    0.000
1536 H_2847 15.595 13.699 2.942 h1 105 NIL_105    0.000
1537 H_28501 12.071 14.045 4.674 h1 105 NIL_105    0.000
1538 H_28502 13.307 15.315 4.611 h1 105 NIL_105    0.000
1539 H_28481 13.924 11.505 5.145 hc 105 NIL_105    0.000
1540 H_28482 15.506 12.007 5.731 hc 105 NIL_105    0.000
1541 C_3520 14.011 8.653 -8.932 c3 106 NIL_106    0.000
1542 C_3007 12.659 9.153 -9.469 c3 106 NIL_106    0.000
1543 C_3006 12.794 10.581 -10.017 c3 106 NIL_106    0.000
1544 H_30061 13.497 10.592 -10.853 h1 106 NIL_106    0.000
1545 H_30062 11.819 10.926 -10.372 h1 106 NIL_106    0.000
1546 H_30071 12.310 8.483 -10.256 hc 106 NIL_106    0.000
1547 H_30072 11.921 9.140 -8.665 hc 106 NIL_106    0.000
1548 H_35201 14.475 9.299 -8.233 hc 106 NIL_106    0.000
1549 H_35202 14.742 8.582 -9.732 hc 106 NIL_106    0.000
1550 H_35203 13.891 7.669 -8.475 hc 106 NIL_106    0.000
1551 C_262 16.857 14.044 19.435 c 107 NIL_107    0.000
1552 C_257 16.513 15.454 18.979 c3 107 NIL_107    0.000
1553 O 17.938 13.649 19.823 o 107 NIL_107    0.000
1554 N 17.138 15.918 17.737 n3 107 NIL_107    0.000
1555 C_258 15.009 15.527 18.625 c3 107 NIL_107    0.000
1556 C_260 16.287 17.017 17.231 c3 107 NIL_107    0.000
1557 C_259 14.828 16.668 17.599 c3 107 NIL_107    0.000
1558 N 14.050 16.234 16.414 n 107 NIL_107    0.000
1559 C_271 14.177 17.848 18.303 c 107 NIL_107    0.000
1560 O 14.819 18.638 18.965 o 107 NIL_107    0.000
1561 H_2601 16.405 17.144 16.153 h1 107 NIL_107    0.000
1562 H_2602 16.565 17.943 17.740 h1 107 NIL_107    0.000
1563 H_2581 14.704 14.586 18.163 hc 107 NIL_107    0.000
1564 H_2582 14.396 15.688 19.515 hc 107 NIL_107    0.000
1565 H_257 16.735 16.151 19.790 h1 107 NIL_107    0.000
1566 N 14.965 13.292 -3.923 n 108 NIL_108    0.000
1567 C_2946 13.584 12.988 -4.364 c3 108 NIL_108    0.000
1568 C_2945 13.562 11.667 -5.194 c3 108 NIL_108    0.000
1569 C_2947 13.056 13.918 -5.525 c3 108 NIL_108    0.000
1570 C_2958 12.678 12.845 -3.078 c 108 NIL_108    0.000
1571 C_2944 13.972 12.016 -6.660 c3 108 NIL_108    0.000
1572 N 13.100 13.229 -6.871 n 108 NIL_108    0.000
1573 O 11.550 12.405 -3.175 o 108 NIL_108    0.000
1574 C_2949 13.569 11.030 -7.739 c 108 NIL_108    0.000
1575 O 13.390 9.893 -7.429 o 108 NIL_108    0.000
1576 H_2944 15.061 12.098 -6.715 h1 108 NIL_108    0.000
1577 H_29471 12.031 14.051 -5.518 h1 108 NIL_108    0.000
1578 H_29472 13.196 15.351 -4.905 h1 108 NIL_108    0.000
1579 H_29451 12.539 11.284 -5.206 hc 108 NIL_108    0.000
1580 H_29452 14.212 10.905 -4.758 hc 108 NIL_108    0.000
1581 C_1480 2.917 19.508 5.729 c3 109 NIL_109    0.000
1582 C_1481 3.276 19.372 4.243 c3 109 NIL_109    0.000
1583 C_3528 3.923 18.009 3.972 c3 109 NIL_109    0.000
1584 H_35281 3.235 17.227 4.208 hc 109 NIL_109    0.000
1585 H_35282 4.712 18.200 4.088 hc 109 NIL_109    0.000
1586 H_35283 4.130 17.889 2.934 hc 109 NIL_109    0.000
1587 H_14811 3.877 20.043 4.243 hc 109 NIL_109    0.000
1588 H_14812 2.377 19.474 3.633 hc 109 NIL_109    0.000
1589 H_14801 2.488 20.496 5.912 h1 109 NIL_109    0.000
1590 H_14802 2.174 18.749 5.989 h1 109 NIL_109    0.000
1591 C_2948 13.258 13.831 -8.233 c 110 NIL_110    0.000
1592 C_2937 13.419 12.884 -9.481 c3 110 NIL_110    0.000
1593 O 12.938 14.990 -8.378 o 110 NIL_110    0.000
1594 C_2936 14.773 13.020 -10.259 c3 110 NIL_110    0.000
1595 C_2938 12.421 13.171 -10.696 c3 110 NIL_110    0.000
1596 N 13.276 11.498 -8.986 n 110 NIL_110    0.000
1597 C_2935 14.497 13.412 -11.758 c3 110 NIL_110    0.000
1598 N 13.109 13.164 -12.043 n 110 NIL_110    0.000
1599 C_2939 15.386 12.809 -12.833 c 110 NIL_110    0.000
1600 O 16.505 12.439 -12.560 o 110 NIL_110    0.000
1601 H_2935 14.631 14.494 -11.849 h1 110 NIL_110    0.000
1602 H_29381 11.620 12.428 -10.702 h1 110 NIL_110    0.000
1603 H_29382 11.975 14.159 -10.561 h1 110 NIL_110    0.000
1604 H_29361 15.292 12.059 -10.231 hc 110 NIL_110    0.000
1605 H_29362 15.417 13.763 -9.785 hc 110 NIL_110    0.000
1606 C_1297 8.808 19.347 -17.895 c 111 NIL_111    0.000
1607 C_1292 7.581 19.835 -16.958 c3 111 NIL_111    0.000
1608 O 8.597 18.529 -18.768 o 111 NIL_111    0.000
1609 NH 10.126 19.840 -17.734 n 111 NIL_111    0.000
1610 N 6.121 19.296 -17.090 n 111 NIL_111    0.000
1611 C_1293 7.948 19.591 -15.438 c3 111 NIL_111    0.000
1612 C_3668 11.472 19.640 -18.534 c3 111 NIL_111    0.000
1613 C_1295 5.793 18.721 -15.728 c3 111 NIL_111    0.000
1614 C_1294 6.662 19.355 -14.573 c3 111 NIL_111    0.000
1615 C_3656 12.264 18.229 -18.381 c2 111 NIL_111    0.000
1616 N 6.098 20.639 -14.098 n 111 NIL_111    0.000
1617 C_1306 6.942 18.447 -13.318 c 111 NIL_111    0.000
1618 C_3654 13.299 17.865 -19.159 c2 111 NIL_111    0.000
1619 C_3658 11.983 17.275 -17.478 c2 111 NIL_111    0.000
1620 C_3544 6.190 21.671 -15.127 c3 111 NIL_111    0.000
1621 O 7.629 17.452 -13.430 o 111 NIL_111    0.000
1622 C_3652 13.963 16.688 -19.064 c2 111 NIL_111    0.000
1623 C_3660 12.647 16.098 -17.376 c2 111 NIL_111    0.000
1624 C_3546 7.638 22.120 -15.361 c3 111 NIL_111    0.000
1625 C_3574 13.672 15.735 -18.164 c2 111 NIL_111    0.000
1626 C_3548 7.691 23.138 -16.507 c3 111 NIL_111    0.000
1627 C_2831 14.331 14.403 -18.090 c 111 NIL_111    0.000
1628 O 15.122 14.040 -18.937 o 111 NIL_111    0.000
1629 H_35481 7.110 24.026 -16.251 hc 111 NIL_111    0.000
1630 H_35482 7.278 22.701 -17.419 hc 111 NIL_111    0.000
1631 H_35483 8.722 23.437 -16.700 hc 111 NIL_111    0.000
1632 H_35461 8.222 21.359 -15.684 hc 111 NIL_111    0.000
1633 H_35462 8.039 22.564 -14.447 hc 111 NIL_111    0.000
1634 H_3660 12.314 15.399 -16.630 ha 111 NIL_111    0.000
1635 H_3652 14.771 16.498 -19.766 ha 111 NIL_111    0.000
1636 H_35441 5.590 22.531 -14.818 h1 111 NIL_111    0.000
1637 H_35442 5.778 21.272 -16.058 h1 111 NIL_111    0.000
1638 H_3658 11.161 17.455 -16.791 ha 111 NIL_111    0.000
1639 H_3654 13.619 18.563 -19.928 ha 111 NIL_111    0.000
1640 H_12951 6.008 17.655 -15.752 h1 111 NIL_111    0.000
1641 H_12952 4.730 18.869 -15.518 h1 111 NIL_111    0.000
1642 H_36681 12.151 20.441 -18.234 h1 111 NIL_111    0.000
1643 H_36682 11.244 19.786 -19.594 h1 111 NIL_111    0.000
1644 H_12931 8.572 18.701 -15.376 hc 111 NIL_111    0.000
1645 H_12932 8.567 20.328 -14.971 hc 111 NIL_111    0.000
1646 H_1292 7.525 20.917 -17.110 h1 111 NIL_111    0.000
1647 HH 10.229 20.505 -16.982 hn 111 NIL_111    0.000
1648 C_1343 5.304 19.159 11.869 c3 112 NIL_112    0.000
1649 NH 4.449 19.491 13.019 n 112 NIL_112    0.000
1650 C_1335 4.881 19.770 10.406 c3 112 NIL_112    0.000
1651 C_1323 5.056 19.025 8.950 c3 112 NIL_112    0.000
1652 C_1319 3.903 19.309 7.969 c 112 NIL_112    0.000
1653 NH 6.319 19.164 8.171 n 112 NIL_112    0.000
1654 O 2.789 19.508 8.408 o 112 NIL_112    0.000
1655 H_1323 4.959 17.955 9.150 h1 112 NIL_112    0.000
1656 H_13351 3.806 19.944 10.490 hc 112 NIL_112    0.000
1657 H_13352 5.319 20.768 10.325 hc 112 NIL_112    0.000
1658 H_13431 5.299 18.070 11.785 h1 112 NIL_112    0.000
1659 H_13432 6.328 19.466 12.099 h1 112 NIL_112    0.000
1660 HH 7.160 19.150 8.729 hn 112 NIL_112    0.000
1661 HH 3.810 20.268 12.943 hn 112 NIL_112    0.000
1662 N 5.090 10.415 -11.955 n 113 NIL_113    0.000
1663 C_2355 4.157 9.394 -11.644 c3 113 NIL_113    0.000
1664 C_2358 5.719 10.708 -10.544 c3 113 NIL_113    0.000
1665 C_2356 3.602 9.681 -10.202 c3 113 NIL_113    0.000
1666 C_2360 3.174 9.136 -12.778 c 113 NIL_113    0.000
1667 C_2357 4.698 10.443 -9.381 c3 113 NIL_113    0.000
1668 O 2.118 8.576 -12.568 o 113 NIL_113    0.000
1669 N 4.169 11.711 -8.829 n 113 NIL_113    0.000
1670 C_2369 5.261 9.585 -8.179 c 113 NIL_113    0.000
1671 O 6.006 8.653 -8.399 o 113 NIL_113    0.000
1672 H_23561 2.715 10.316 -10.273 hc 113 NIL_113    0.000
1673 H_23562 3.319 8.752 -9.702 hc 113 NIL_113    0.000
1674 H_23581 6.085 11.759 -10.472 h1 113 NIL_113    0.000
1675 H_23582 6.603 10.184 -10.475 h1 113 NIL_113    0.000
1676 H_2355 4.754 8.480 -11.583 h1 113 NIL_113    0.000
1677 O 12.076 15.994 15.385 o 114 NIL_114    0.000
1678 C_3865 12.704 16.359 16.307 c 114 NIL_114    0.000
1679 C_3861 11.990 17.056 17.447 c3 114 NIL_114    0.000
1680 N 12.849 18.009 18.120 n 114 NIL_114    0.000
1681 C_3862 10.708 17.824 17.053 c3 114 NIL_114    0.000
1682 C_3864 12.034 19.117 18.632 c3 114 NIL_114    0.000
1683 C_3863 10.654 19.103 17.927 c3 114 NIL_114    0.000
1684 N 10.544 20.301 17.083 n 114 NIL_114    0.000
1685 C_3869 9.540 19.022 18.969 c 114 NIL_114    0.000
1686 H 11.382 20.565 16.588 hn 114 NIL_114    0.000
1687 O 9.616 18.276 19.923 o 114 NIL_114    0.000
1688 H_38641 12.542 20.065 18.438 h1 114 NIL_114    0.000
1689 H_38642 11.900 18.992 19.710 h1 114 NIL_114    0.000
1690 H_38621 10.770 18.110 16.001 hc 114 NIL_114    0.000
1691 H_38622 9.818 17.206 17.194 hc 114 NIL_114    0.000
1692 H_3861 11.735 16.282 18.176 h1 114 NIL_114    0.000
1693 C_2376 5.591 9.117 9.084 c3 115 NIL_115    0.000
1694 C_2372 4.285 9.389 8.315 c 115 NIL_115    0.000
1695 NH 6.697 9.469 8.150 n 115 NIL_115    0.000
1696 C_2388 5.796 9.749 10.586 c3 115 NIL_115    0.000
1697 O 3.241 9.488 8.927 o 115 NIL_115    0.000
1698 C_2396 5.186 9.236 12.023 c3 115 NIL_115    0.000
1699 NH 5.995 8.355 12.882 n 115 NIL_115    0.000
1700 H_23961 4.984 10.128 12.620 h1 115 NIL_115    0.000
1701 H_23962 4.225 8.748 11.843 h1 115 NIL_115    0.000
1702 H_23881 5.491 10.794 10.497 hc 115 NIL_115    0.000
1703 H_23882 6.876 9.793 10.741 hc 115 NIL_115    0.000
1704 H_2376 5.629 8.029 9.188 h1 115 NIL_115    0.000
1705 HH 5.985 7.366 12.679 hn 115 NIL_115    0.000
1706 HH 7.604 9.511 8.591 hn 115 NIL_115    0.000
1707 N 5.364 18.981 2.893 n 116 NIL_116    0.000
1708 C_1312 5.184 20.227 3.408 c3 116 NIL_116    0.000
1709 C_1315 5.934 18.401 4.983 c3 116 NIL_116    0.000
1710 C_1313 5.573 20.521 4.913 c3 116 NIL_116    0.000
1711 C_1317 5.866 20.985 2.330 c 116 NIL_116    0.000
1712 C_1314 5.389 19.298 5.802 c3 116 NIL_116    0.000
1713 O 6.323 22.092 2.530 o 116 NIL_116    0.000
1714 N 4.079 19.332 6.599 n 116 NIL_116    0.000
1715 C_1320 6.499 19.123 6.799 c 116 NIL_116    0.000
1716 O 7.630 19.031 6.369 o 116 NIL_116    0.000
1717 H_13131 6.637 20.753 4.928 hc 116 NIL_116    0.000
1718 H_13132 5.032 21.383 5.310 hc 116 NIL_116    0.000
1719 H_13151 6.304 17.588 4.651 h1 116 NIL_116    0.000
1720 H_13152 3.746 16.736 5.223 h1 116 NIL_116    0.000
1721 H_1312 4.136 20.594 3.057 h1 116 NIL_116    0.000
1722 N 6.475 18.806 -12.060 n 117 NIL_117    0.000
1723 C_1302 5.452 19.796 -11.845 c3 117 NIL_117    0.000
1724 C_1305 6.720 18.185 -10.705 c3 117 NIL_117    0.000
1725 C_1303 5.433 20.172 -10.315 c3 117 NIL_117    0.000
1726 C_1307 5.547 20.915 -12.876 c 117 NIL_117    0.000
1727 C_1304 6.272 19.130 -9.498 c3 117 NIL_117    0.000
1728 O 5.147 22.034 -12.628 o 117 NIL_117    0.000
1729 N 7.444 19.809 -8.914 n 117 NIL_117    0.000
1730 C_1316 5.521 18.425 -8.305 c 117 NIL_117    0.000
1731 O 4.814 17.459 -8.507 o 117 NIL_117    0.000
1732 H_13031 5.870 21.164 -10.175 hc 117 NIL_117    0.000
1733 H_13032 4.404 20.203 -9.951 hc 117 NIL_117    0.000
1734 H_13051 7.555 18.044 -10.765 h1 117 NIL_117    0.000
1735 H_13052 6.151 17.255 -10.658 h1 117 NIL_117    0.000
1736 H_1302 4.503 19.299 -12.067 h1 117 NIL_117    0.000
1737 N 5.222 9.460 3.363 n 118 NIL_118    0.000
1738 C_2365 4.653 10.720 3.762 c3 118 NIL_118    0.000
1739 C_2368 5.464 8.732 4.679 c3 118 NIL_118    0.000
1740 C_2366 5.248 11.040 5.177 c3 118 NIL_118    0.000
1741 C_2370 4.780 11.782 2.684 c 118 NIL_118    0.000
1742 C_2367 5.391 9.696 5.962 c3 118 NIL_118    0.000
1743 O 4.733 12.962 2.965 o 118 NIL_118    0.000
1744 N 4.264 9.513 6.934 n 118 NIL_118    0.000
1745 C_2373 6.687 9.683 6.787 c 118 NIL_118    0.000
1746 O 7.744 9.893 6.227 o 118 NIL_118    0.000
1747 H_23661 6.232 11.490 5.052 hc 118 NIL_118    0.000
1748 H_23662 4.741 11.768 5.765 hc 118 NIL_118    0.000
1749 H_23681 6.451 8.267 4.636 h1 118 NIL_118    0.000
1750 H_23682 4.718 7.940 4.784 h1 118 NIL_118    0.000
1751 H_2365 3.579 10.548 3.877 h1 118 NIL_118    0.000
1752 C_3514 15.830 12.707 4.541 c3 119 NIL_119    0.000
1753 C_3013 15.608 14.419 4.248 c3 119 NIL_119    0.000
1754 C_3012 15.885 14.884 5.571 c3 119 NIL_119    0.000
1755 H_30121 16.868 14.543 5.906 h1 119 NIL_119    0.000
1756 H_30122 15.880 15.977 5.541 h1 119 NIL_119    0.000
1757 H_30131 16.406 14.631 3.485 hc 119 NIL_119    0.000
1758 H_30132 14.684 14.755 3.790 hc 119 NIL_119    0.000
1759 H_35141 16.444 12.366 4.581 hc 119 NIL_119    0.000
1760 H_35142 15.718 12.170 3.198 hc 119 NIL_119    0.000
1761 H_35143 15.285 12.849 4.302 hc 119 NIL_119    0.000
1762 C_1415 5.369 18.220 -5.656 c3 120 NIL_120    0.000
1763 C_1414 5.725 19.161 -4.413 c3 120 NIL_120    0.000
1764 N 5.796 18.840 -6.983 n 120 NIL_120    0.000
1765 C_1413 6.796 20.015 -5.159 c3 120 NIL_120    0.000
1766 N 4.574 20.002 -3.985 n 120 NIL_120    0.000
1767 C_1426 6.374 18.521 -3.127 c 120 NIL_120    0.000
1768 C_1412 6.418 20.086 -6.676 c3 120 NIL_120    0.000
1769 O 7.433 17.931 -3.209 o 120 NIL_120    0.000
1770 C_1417 7.567 20.305 -7.649 c 120 NIL_120    0.000
1771 O 8.589 20.862 -7.305 o 120 NIL_120    0.000
1772 H_1412 5.718 20.908 -6.835 h1 120 NIL_120    0.000
1773 H_14131 7.759 19.507 -5.078 hc 120 NIL_120    0.000
1774 H_14132 6.898 21.006 -4.714 hc 120 NIL_120    0.000
1775 H_14151 5.949 17.301 -5.577 h1 120 NIL_120    0.000
1776 H_14152 4.521 17.838 -5.539 h1 120 NIL_120    0.000
1777 C_2285 6.814 7.686 15.088 c3 121 NIL_121    0.000
1778 C_766 6.438 8.773 14.094 c 121 NIL_121    0.000
1779 O 6.467 9.951 14.381 o 121 NIL_121    0.000
1780 H_22851 5.895 7.172 15.378 h1 121 NIL_121    0.000
1781 H_22852 7.463 6.979 14.562 h1 121 NIL_121    0.000
1782 N 5.797 18.705 -1.877 n 122 NIL_122    0.000
1783 C_1422 4.408 19.038 -1.694 c3 122 NIL_122    0.000
1784 C_1425 6.338 18.436 -0.490 c3 122 NIL_122    0.000
1785 C_1423 4.161 19.387 -0.174 c3 122 NIL_122    0.000
1786 C_1427 3.954 20.023 -2.765 c 122 NIL_122    0.000
1787 C_1424 5.454 19.101 0.664 c3 122 NIL_122    0.000
1788 O 3.068 20.826 -2.550 o 122 NIL_122    0.000
1789 C_1428 5.283 18.222 1.933 c 122 NIL_122    0.000
1790 N 6.018 20.392 1.108 n 122 NIL_122    0.000
1791 O 5.170 17.006 1.856 o 122 NIL_122    0.000
1792 H_14231 3.888 20.441 -0.078 hc 122 NIL_122    0.000
1793 H_14232 3.329 18.791 0.209 hc 122 NIL_122    0.000
1794 H_14251 7.366 18.800 -0.425 h1 122 NIL_122    0.000
1795 H_14252 6.341 17.353 -0.343 h1 122 NIL_122    0.000
1796 H_1422 3.850 18.124 -1.908 h1 122 NIL_122    0.000
1797 C_188 5.827 3.638 18.545 c3 123 NIL_123    0.000
1798 C_112 4.932 4.436 17.586 c3 123 NIL_123    0.000
1799 H_1121 4.960 3.984 16.591 h1 123 NIL_123    0.000
1800 H_1122 3.898 4.424 17.945 h1 123 NIL_123    0.000
1801 H_1881 5.455 2.617 18.654 hc 123 NIL_123    0.000
1802 H_1882 5.815 4.107 19.530 hc 123 NIL_123    0.000
1803 H_1883 6.862 3.601 18.190 hc 123 NIL_123    0.000
1804 N 13.392 10.817 18.984 n 124 NIL_124    0.000
1805 C_133 14.256 10.740 17.819 c3 124 NIL_124    0.000
1806 C_136 14.112 11.525 20.060 c3 124 NIL_124    0.000
1807 C_134 15.697 10.967 18.318 c3 124 NIL_124    0.000
1808 C_138 14.064 9.459 17.048 c 124 NIL_124    0.000
1809 C.fc 15.561 11.835 19.586 c3 124 NIL_124    0.000
1810 O 14.939 8.994 16.346 o 124 NIL_124    0.000
1811 NH 15.739 13.272 19.311 n 124 NIL_124    0.000
1812 H.fc 16.287 11.529 20.343 h1 124 NIL_124    0.000
1813 H_1341 16.315 11.452 17.562 hc 124 NIL_124    0.000
1814 H_1342 16.145 10.007 18.582 hc 124 NIL_124    0.000
1815 H_1361 14.142 10.876 20.940 h1 124 NIL_124    0.000
1816 H_1362 13.586 12.450 20.306 h1 124 NIL_124    0.000
1817 H_133 13.978 11.557 17.148 h1 124 NIL_124    0.000
1818 HH 14.909 13.738 18.977 hn 124 NIL_124    0.000
1819 C_737 2.975 10.623 19.716 c3 125 NIL_125    0.000
1820 C.fb 2.626 9.210 19.169 c3 125 NIL_125    0.000
1821 N 2.836 11.614 18.630 n 125 NIL_125    0.000
1822 C_735 1.981 9.536 17.806 c3 125 NIL_125    0.000
1823 NH 3.819 8.352 19.043 n 125 NIL_125    0.000
1824 C_734 2.556 10.907 17.396 c3 125 NIL_125    0.000
1825 C_739 1.672 11.695 16.462 c 125 NIL_125    0.000
1826 O 0.998 11.155 15.608 o 125 NIL_125    0.000
1827 H_734 3.510 10.759 16.880 h1 125 NIL_125    0.000
1828 H_7351 2.180 8.766 17.057 hc 125 NIL_125    0.000
1829 H_7352 0.899 9.627 17.936 hc 125 NIL_125    0.000
1830 H.fb 1.904 8.713 19.821 h1 125 NIL_125    0.000
1831 H_7371 2.280 10.887 20.516 h1 125 NIL_125    0.000
1832 H_7372 3.998 10.638 20.100 h1 125 NIL_125    0.000
1833 HH 4.651 8.829 18.732 hn 125 NIL_125    0.000
1834 C_2526 2.500 9.521 -4.857 c3 126 NIL_126    0.000
1835 C_2527 2.177 10.963 -5.312 c3 126 NIL_126    0.000
1836 C_3504 1.234 10.934 -6.531 c3 126 NIL_126    0.000
1837 H_35041 1.052 11.953 -6.881 hc 126 NIL_126    0.000
1838 H_35042 0.283 10.489 -6.239 hc 126 NIL_126    0.000
1839 H_35043 1.656 10.352 -7.354 hc 126 NIL_126    0.000
1840 H_25271 3.024 11.485 -5.598 hc 126 NIL_126    0.000
1841 H_25272 1.786 11.538 -4.529 hc 126 NIL_126    0.000
1842 H_25261 1.581 9.069 -4.480 h1 126 NIL_126    0.000
1843 H_25262 2.872 8.922 -5.695 h1 126 NIL_126    0.000
1844 C_2858 13.985 14.300 8.929 c3 127 NIL_127    0.000
1845 C_2854 15.003 14.756 7.866 c 127 NIL_127    0.000
1846 NH 13.163 13.234 8.291 n 127 NIL_127    0.000
1847 C_2870 14.650 14.087 10.421 c3 127 NIL_127    0.000
1848 O 15.955 15.426 8.210 o 127 NIL_127    0.000
1849 C_2878 13.894 14.263 11.868 c3 127 NIL_127    0.000
1850 NH 14.671 14.753 13.022 n 127 NIL_127    0.000
1851 H_28781 13.080 14.979 11.720 h1 127 NIL_127    0.000
1852 H_28782 13.438 13.309 12.143 h1 127 NIL_127    0.000
1853 H_28701 15.460 14.818 10.455 hc 127 NIL_127    0.000
1854 H_28702 15.146 13.115 10.425 hc 127 NIL_127    0.000
1855 H_2858 13.317 15.160 9.021 h1 127 NIL_127    0.000
1856 HH 15.677 14.671 13.010 hn 127 NIL_127    0.000
1857 HH 12.554 12.741 8.926 hn 127 NIL_127    0.000
1858 C_1478 6.705 21.070 0.014 c3 128 NIL_128    0.000
1859 C_1479 5.712 21.651 -1.005 c3 128 NIL_128    0.000
1860 C_3530 4.826 22.711 -0.336 c3 128 NIL_128    0.000
1861 H_35301 4.261 22.267 0.487 hc 128 NIL_128    0.000
1862 H_35302 4.121 23.126 -1.059 hc 128 NIL_128    0.000
1863 H_35303 5.444 23.521 0.057 hc 128 NIL_128    0.000
1864 H_14791 5.087 20.854 -1.409 hc 128 NIL_128    0.000
1865 H_14792 6.258 22.100 -1.836 hc 128 NIL_128    0.000
1866 H_14781 7.351 20.347 -0.486 h1 128 NIL_128    0.000
1867 H_14782 7.322 21.872 0.425 h1 128 NIL_128    0.000
1868 C_3010 14.136 10.723 0.349 c3 129 NIL_129    0.000
1869 C_3011 15.277 10.773 -0.679 c3 129 NIL_129    0.000
1870 C_3516 16.634 10.652 0.028 c3 129 NIL_129    0.000
1871 H_35161 16.768 11.473 0.736 hc 129 NIL_129    0.000
1872 H_35162 17.445 10.688 -0.702 hc 129 NIL_129    0.000
1873 H_35163 16.694 9.708 0.574 hc 129 NIL_129    0.000
1874 H_30111 15.234 11.710 -1.237 hc 129 NIL_129    0.000
1875 H_30112 15.162 9.954 -1.392 hc 129 NIL_129    0.000
1876 H_30101 13.176 10.764 -0.166 h1 129 NIL_129    0.000
1877 H_30102 14.197 9.781 0.900 h1 129 NIL_129    0.000
1878 C_1477 3.068 20.391 -5.933 c3 130 NIL_130    0.000
1879 C_1476 4.172 20.950 -5.024 c3 130 NIL_130    0.000
1880 C_3532 3.513 19.098 -6.628 c3 130 NIL_130    0.000
1881 H_35321 4.357 19.279 -7.205 hc 130 NIL_130    0.000
1882 H_35322 2.727 18.737 -7.293 hc 130 NIL_130    0.000
1883 H_35323 3.491 18.456 -5.976 hc 130 NIL_130    0.000
1884 H_14761 5.044 21.201 -5.627 h1 130 NIL_130    0.000
1885 H_14762 3.803 21.861 -4.543 h1 130 NIL_130    0.000
1886 H_14771 2.806 21.141 -6.685 hc 130 NIL_130    0.000
1887 H_14772 2.181 20.184 -5.330 hc 130 NIL_130    0.000
1888 C_1472 9.130 18.391 -9.999 c3 131 NIL_131    0.000
1889 C_1471 8.567 19.810 -9.844 c3 131 NIL_131    0.000
1890 C_3542 10.175 18.339 -11.120 c3 131 NIL_131    0.000
1891 H_35421 10.526 17.314 -11.256 hc 131 NIL_131    0.000
1892 H_35422 11.030 18.973 -10.873 hc 131 NIL_131    0.000
1893 H_35423 9.742 18.688 -12.060 hc 131 NIL_131    0.000
1894 H_14711 9.344 20.482 -9.473 h1 131 NIL_131    0.000
1895 H_14712 8.214 20.171 -10.813 h1 131 NIL_131    0.000
1896 H_14721 8.535 17.605 -10.082 hc 131 NIL_131    0.000
1897 H_14722 9.569 18.062 -9.058 hc 131 NIL_131    0.000
1898 C_660 18.540 16.326 17.915 c3 132 NIL_132    0.000
1899 C_662 18.620 17.540 18.853 c3 132 NIL_132    0.000
1900 H_6621 18.035 18.370 18.452 hc 132 NIL_132    0.000
1901 H_6622 19.652 17.876 18.958 hc 132 NIL_132    0.000
1902 H_6623 18.235 17.281 19.840 hc 132 NIL_132    0.000
1903 H_6601 18.964 16.594 16.943 h1 132 NIL_132    0.000
1904 H_6602 19.116 15.494 18.332 h1 132 NIL_132    0.000
1905 C_3009 15.962 14.252 -5.971 c3 133 NIL_133    0.000
1906 C_3008 15.935 13.072 -4.990 c3 133 NIL_133    0.000
1907 C_3518 14.617 14.455 -6.623 c3 133 NIL_133    0.000
1908 H_35181 14.277 14.234 -6.444 hc 133 NIL_133    0.000
1909 H_35182 14.609 13.602 -7.237 hc 133 NIL_133    0.000
1910 H_35183 14.594 15.274 -7.315 hc 133 NIL_133    0.000
1911 H_30081 15.674 12.155 -5.519 h1 133 NIL_133    0.000
1912 H_30082 16.924 12.945 -4.541 h1 133 NIL_133    0.000
1913 H_30091 16.709 14.070 -6.747 hc 133 NIL_133    0.000
1914 H_30092 16.242 15.165 -5.442 hc 133 NIL_133    0.000
1915 C_2299 3.618 19.207 15.307 c3 134 NIL_134    0.000
1916 C_309 4.522 18.778 14.169 c 134 NIL_134    0.000
1917 O 5.294 17.860 14.253 o 134 NIL_134    0.000
1918 H_22991 3.985 20.101 15.584 h1 134 NIL_134    0.000
1919 H_22992 2.628 19.326 14.883 h1 134 NIL_134    0.000
1920 C_769 3.521 21.336 16.534 c3 135 NIL_135    0.000
1921 C_770 3.014 21.443 15.079 c3 135 NIL_135    0.000
1922 H_7701 2.549 20.558 14.759 hc 135 NIL_135    0.000
1923 H_7702 3.844 21.661 14.403 hc 135 NIL_135    0.000
1924 H_7703 2.275 22.237 15.002 hc 135 NIL_135    0.000
1925 H_7691 4.263 20.535 16.696 h1 135 NIL_135    0.000
1926 H_7692 4.035 22.246 16.814 h1 135 NIL_135    0.000
1927 C_3691 19.134 16.782 -19.171 c2 136 NIL_136    0.000
1928 C_3689 19.821 17.946 -19.078 c2 136 NIL_136    0.000
1929 C_3693 19.321 15.716 -18.372 c2 136 NIL_136    0.000
1930 C_3585 20.774 18.178 -18.166 c2 136 NIL_136    0.000
1931 C_3695 20.273 15.958 -17.458 c2 136 NIL_136    0.000
1932 C_3705 18.497 14.326 -18.511 c3 136 NIL_136    0.000
1933 C_1296 21.605 19.409 -18.090 c 136 NIL_136    0.000
1934 C_3697 20.960 17.120 -17.360 c2 136 NIL_136    0.000
1935 NH 19.040 13.102 -17.681 n 136 NIL_136    0.000
1936 O 21.535 20.284 -18.930 o 136 NIL_136    0.000
1937 C_2350 20.084 12.168 -17.888 c 136 NIL_136    0.000
1938 C_2345 20.365 10.934 -16.891 c3 136 NIL_136    0.000
1939 O 20.806 12.301 -18.855 o 136 NIL_136    0.000
1940 N 21.450 9.853 -17.016 n 136 NIL_136    0.000
1941 C_2346 20.562 11.499 -15.396 c3 136 NIL_136    0.000
1942 C_2348 22.008 9.683 -15.617 c3 136 NIL_136    0.000
1943 C_2347 21.125 10.363 -14.493 c3 136 NIL_136    0.000
1944 N 19.999 9.516 -14.050 n 136 NIL_136    0.000
1945 C_2359 21.921 10.869 -13.228 c 136 NIL_136    0.000
1946 C_3508 19.109 9.219 -15.168 c3 136 NIL_136    0.000
1947 O 22.828 11.664 -13.366 o 136 NIL_136    0.000
1948 C_3510 18.387 10.478 -15.675 c3 136 NIL_136    0.000
1949 C_3512 17.562 11.125 -14.576 c3 136 NIL_136    0.000
1950 H_35121 16.826 10.416 -14.193 hc 136 NIL_136    0.000
1951 H_35122 17.037 12.002 -14.962 hc 136 NIL_136    0.000
1952 H_35123 18.208 11.440 -13.754 hc 136 NIL_136    0.000
1953 H_35101 17.755 10.214 -16.528 hc 136 NIL_136    0.000
1954 H_35102 19.082 11.217 -16.017 hc 136 NIL_136    0.000
1955 H_35081 18.366 8.487 -14.844 h1 136 NIL_136    0.000
1956 H_35082 19.702 8.782 -15.975 h1 136 NIL_136    0.000
1957 H_23481 22.967 10.152 -15.570 h1 136 NIL_136    0.000
1958 H_23482 22.122 8.618 -15.400 h1 136 NIL_136    0.000
1959 H_23461 21.269 12.312 -15.446 hc 136 NIL_136    0.000
1960 H_23462 19.620 11.901 -14.982 hc 136 NIL_136    0.000
1961 H_2345 19.403 10.372 -16.908 h1 136 NIL_136    0.000
1962 H_3697 21.710 17.186 -16.609 ha 136 NIL_136    0.000
1963 H_37051 17.464 14.503 -18.202 h1 136 NIL_136    0.000
1964 H_37052 18.481 14.031 -19.564 h1 136 NIL_136    0.000
1965 H_3695 20.516 15.164 -16.756 ha 136 NIL_136    0.000
1966 H_3689 19.595 18.733 -19.795 ha 136 NIL_136    0.000
1967 H_3691 18.384 16.697 -19.952 ha 136 NIL_136    0.000
1968 HH 18.495 12.933 -16.848 hn 136 NIL_136    0.000
1969 C_3522 32.227 12.102 -15.152 c3 137 NIL_137    0.000
1970 N 31.385 12.649 -14.095 n 137 NIL_137    0.000
1971 C_3524 33.615 11.758 -14.604 c3 137 NIL_137    0.000
1972 C_2829 30.018 12.943 -14.579 c3 137 NIL_137    0.000
1973 C_3526 34.292 13.037 -14.091 c3 137 NIL_137    0.000
1974 C_2828 29.513 11.791 -15.505 c3 137 NIL_137    0.000
1975 C_2830 29.997 14.080 -15.683 c3 137 NIL_137    0.000
1976 C_2841 29.083 13.138 -13.328 c 137 NIL_137    0.000
1977 C_2827 29.980 12.022 -16.991 c3 137 NIL_137    0.000
1978 N 30.253 13.556 -17.087 n 137 NIL_137    0.000
1979 O 27.880 13.204 -13.477 o 137 NIL_137    0.000
1980 C_2832 28.989 11.207 -17.970 c 137 NIL_137    0.000
1981 O 28.518 11.762 -18.942 o 137 NIL_137    0.000
1982 NH 28.658 9.852 -17.731 n 137 NIL_137    0.000
1983 C_3643 27.834 8.786 -18.544 c3 137 NIL_137    0.000
1984 C_3631 26.216 8.813 -18.382 c2 137 NIL_137    0.000
1985 C_3629 25.368 8.249 -19.259 c2 137 NIL_137    0.000
1986 C_3633 25.549 9.396 -17.373 c2 137 NIL_137    0.000
1987 C_3627 24.016 8.271 -19.151 c2 137 NIL_137    0.000
1988 C_3635 24.197 9.422 -17.263 c2 137 NIL_137    0.000
1989 C_2378 23.356 8.864 -18.147 c2 137 NIL_137    0.000
1990 C_2349 21.871 8.978 -18.067 c 137 NIL_137    0.000
1991 O 21.159 8.565 -18.958 o 137 NIL_137    0.000
1992 H_3635 23.801 9.935 -16.446 ha 137 NIL_137    0.000
1993 H_3627 23.434 7.798 -19.937 ha 137 NIL_137    0.000
1994 H_3633 26.130 9.892 -16.600 ha 137 NIL_137    0.000
1995 H_3629 25.797 7.748 -20.123 ha 137 NIL_137    0.000
1996 H_36431 28.198 7.797 -18.256 h1 137 NIL_137    0.000
1997 H_36432 28.073 8.927 -19.601 h1 137 NIL_137    0.000
1998 H_2827 30.952 11.536 -17.104 h1 137 NIL_137    0.000
1999 H_28301 29.014 14.546 -15.667 h1 137 NIL_137    0.000
2000 H_28302 30.743 14.841 -15.436 h1 137 NIL_137    0.000
2001 H_28281 28.422 11.805 -15.494 hc 137 NIL_137    0.000
2002 H_28282 29.839 10.818 -15.135 hc 137 NIL_137    0.000
2003 H_35261 35.261 12.804 -13.648 hc 137 NIL_137    0.000
2004 H_35262 33.681 13.539 -13.346 hc 137 NIL_137    0.000
2005 H_35263 34.439 13.737 -14.912 hc 137 NIL_137    0.000
2006 H_35241 34.225 11.307 -15.388 hc 137 NIL_137    0.000
2007 H_35242 33.514 11.036 -13.791 hc 137 NIL_137    0.000
2008 H_35221 32.322 12.848 -15.946 h1 137 NIL_137    0.000
2009 H_35222 31.753 11.205 -15.558 h1 137 NIL_137    0.000
2010 HH 29.064 9.466 -16.891 hn 137 NIL_137    0.000
2011 N 19.997 9.514 -3.788 n 138 NIL_138    0.000
2012 C_2464 21.290 10.053 -4.267 c3 138 NIL_138    0.000
2013 C_2463 21.004 11.376 -5.013 c3 138 NIL_138    0.000
2014 C_2465 21.881 9.278 -5.542 c3 138 NIL_138    0.000
2015 C_2476 22.261 10.255 -3.038 c 138 NIL_138    0.000
2016 C_2462 20.612 10.901 -6.538 c3 138 NIL_138    0.000
2017 N 21.433 9.893 -6.860 n 138 NIL_138    0.000
2018 O 23.365 10.730 -3.217 o 138 NIL_138    0.000
2019 C_2467 20.389 12.018 -7.529 c 138 NIL_138    0.000
2020 O 20.030 13.139 -7.235 o 138 NIL_138    0.000
2021 H_2462 19.567 10.453 -6.433 h1 138 NIL_138    0.000
2022 H_24651 22.972 9.318 -5.501 h1 138 NIL_138    0.000
2023 H_24652 21.567 8.230 -5.515 h1 138 NIL_138    0.000
2024 H_24631 21.876 11.988 -5.083 hc 138 NIL_138    0.000
2025 H_24632 20.199 11.959 -4.517 hc 138 NIL_138    0.000
2026 C_268 23.864 21.866 18.154 c3 139 NIL_139    0.000
2027 C_267 24.701 20.670 17.661 c3 139 NIL_139    0.000
2028 C.fa 23.101 21.358 19.396 c3 139 NIL_139    0.000
2029 N 24.989 19.867 18.833 n 139 NIL_139    0.000
2030 C_272 25.942 21.059 16.899 c 139 NIL_139    0.000
2031 C_270 23.950 20.134 19.845 c3 139 NIL_139    0.000
2032 NH 21.711 20.972 19.098 n 139 NIL_139    0.000
2033 O 25.971 22.031 16.172 o 139 NIL_139    0.000
2034 H_2701 24.432 20.344 20.802 h1 139 NIL_139    0.000
2035 H_2702 23.313 19.252 19.948 h1 139 NIL_139    0.000
2036 H.fa 23.095 22.125 20.175 h1 139 NIL_139    0.000
2037 H_267 24.096 20.056 16.987 h1 139 NIL_139    0.000
2038 H_2681 23.187 22.240 17.383 hc 139 NIL_139    0.000
2039 H_2682 24.539 22.669 18.456 hc 139 NIL_139    0.000
2040 HH 21.617 20.057 18.694 hn 139 NIL_139    0.000
2041 C_2530 19.490 9.782 6.275 c3 140 NIL_140    0.000
2042 C_2531 19.322 11.276 5.962 c3 140 NIL_140    0.000
2043 C_3500 18.006 11.522 5.216 c3 140 NIL_140    0.000
2044 H_35001 17.996 10.972 4.273 hc 140 NIL_140    0.000
2045 H_35002 17.885 12.586 5.001 hc 140 NIL_140    0.000
2046 H_35003 17.160 11.189 5.822 hc 140 NIL_140    0.000
2047 H_25311 20.028 11.604 5.301 hc 140 NIL_140    0.000
2048 H_25312 19.333 11.848 6.892 hc 140 NIL_140    0.000
2049 H_25301 18.679 9.458 6.932 h1 140 NIL_140    0.000
2050 H_25302 19.445 9.207 5.347 h1 140 NIL_140    0.000
2051 C_728 18.212 19.830 17.034 c3 141 NIL_141    0.000
2052 C_727 19.114 18.669 17.499 c3 141 NIL_141    0.000
2053 N 18.897 21.076 17.436 n3 141 NIL_141    0.000
2054 C_726 19.888 19.329 18.667 c3 141 NIL_141    0.000
2055 N 20.005 18.231 16.402 n 141 NIL_141    0.000
2056 C_738 18.279 17.512 18.030 c 141 NIL_141    0.000
2057 C_725 19.406 20.798 18.786 c3 141 NIL_141    0.000
2058 O 17.194 17.681 18.547 o 141 NIL_141    0.000
2059 C_729 20.553 21.671 19.279 c 141 NIL_141    0.000
2060 O 20.472 22.792 19.737 o 141 NIL_141    0.000
2061 H_725 18.585 20.857 19.506 h1 141 NIL_141    0.000
2062 H_7261 20.952 19.303 18.441 hc 141 NIL_141    0.000
2063 H_7262 19.723 18.793 19.604 hc 141 NIL_141    0.000
2064 H_7281 18.037 19.802 15.956 h1 141 NIL_141    0.000
2065 H_7282 17.257 19.771 17.561 h1 141 NIL_141    0.000
2066 C_2960 29.692 13.972 1.953 c 142 NIL_142    0.000
2067 C_2956 30.196 13.100 0.739 c3 142 NIL_142    0.000
2068 O 28.883 14.859 1.768 o 142 NIL_142    0.000
2069 C_2955 31.329 13.756 -0.114 c3 142 NIL_142    0.000
2070 C_2957 29.131 12.852 -0.431 c3 142 NIL_142    0.000
2071 N 30.703 11.827 1.305 n 142 NIL_142    0.000
2072 C_2954 30.852 13.942 -1.599 c3 142 NIL_142    0.000
2073 N 29.688 13.124 -1.814 n 142 NIL_142    0.000
2074 C_2959 31.881 13.725 -2.695 c 142 NIL_142    0.000
2075 O 33.062 13.910 -2.484 o 142 NIL_142    0.000
2076 H_2954 30.515 14.975 -1.712 h1 142 NIL_142    0.000
2077 H_29571 28.771 11.822 -0.388 h1 142 NIL_142    0.000
2078 H_29572 28.277 13.517 -0.274 h1 142 NIL_142    0.000
2079 H_29551 32.198 13.094 -0.103 hc 142 NIL_142    0.000
2080 H_29552 31.629 14.713 0.312 hc 142 NIL_142    0.000
2081 N 26.057 8.138 18.082 n 143 NIL_143    0.000
2082 C_3832 25.807 9.395 17.403 c3 143 NIL_143    0.000
2083 C_3835 27.447 8.116 18.570 c3 143 NIL_143    0.000
2084 C_3833 27.192 9.963 17.022 c3 143 NIL_143    0.000
2085 C_3837 24.862 9.222 16.234 c 143 NIL_143    0.000
2086 C_3834 28.226 9.315 17.969 c3 143 NIL_143    0.000
2087 O 24.911 9.931 15.250 o 143 NIL_143    0.000
2088 N 29.381 8.823 17.204 n 143 NIL_143    0.000
2089 C_3841 28.652 10.275 19.074 c 143 NIL_143    0.000
2090 H 29.247 7.956 16.705 hn 143 NIL_143    0.000
2091 O 27.948 10.492 20.039 o 143 NIL_143    0.000
2092 H_38331 27.428 9.666 15.999 hc 143 NIL_143    0.000
2093 H_38332 27.215 11.053 17.086 hc 143 NIL_143    0.000
2094 H_38351 27.921 7.181 18.261 h1 143 NIL_143    0.000
2095 H_38352 27.453 8.186 19.661 h1 143 NIL_143    0.000
2096 H_3832 25.322 10.066 18.116 h1 143 NIL_143    0.000
2097 C_3502 23.476 13.644 1.314 c3 144 NIL_144    0.000
2098 C_2529 22.957 12.893 0.080 c3 144 NIL_144    0.000
2099 C_2528 21.524 12.399 0.324 c3 144 NIL_144    0.000
2100 H_25281 20.892 13.246 0.600 h1 144 NIL_144    0.000
2101 H_25282 21.137 11.956 -0.597 h1 144 NIL_144    0.000
2102 H_25291 22.973 13.562 -0.782 hc 144 NIL_144    0.000
2103 H_25292 23.626 12.079 -0.134 hc 144 NIL_144    0.000
2104 H_35021 23.491 12.983 2.182 hc 144 NIL_144    0.000
2105 H_35022 22.830 14.495 1.538 hc 144 NIL_144    0.000
2106 H_35023 24.488 14.013 1.139 hc 144 NIL_144    0.000
2107 C_3887 18.082 15.005 18.124 c3 145 NIL_145    0.000
2108 C_3886 18.926 13.816 17.593 c3 145 NIL_145    0.000
2109 N 18.781 16.270 17.846 n 145 NIL_145    0.000
2110 C_3885 20.103 14.520 16.873 c3 145 NIL_145    0.000
2111 N 18.132 13.035 16.632 n 145 NIL_145    0.000
2112 C_3892 19.408 12.962 18.764 c 145 NIL_145    0.000
2113 C_3884 20.116 15.988 17.356 c3 145 NIL_145    0.000
2114 H 17.526 13.567 16.025 hn 145 NIL_145    0.000
2115 O 19.771 13.460 19.810 o 145 NIL_145    0.000
2116 C_3888 20.552 16.994 16.311 c 145 NIL_145    0.000
2117 O 21.286 16.677 15.418 o 145 NIL_145    0.000
2118 H_3884 20.801 16.084 18.202 h1 145 NIL_145    0.000
2119 H_38851 19.921 14.502 15.795 hc 145 NIL_145    0.000
2120 H_38852 21.055 14.024 17.070 hc 145 NIL_145    0.000
2121 H_38871 17.111 15.020 17.623 h1 145 NIL_145    0.000
2122 H_38872 17.930 14.907 19.201 h1 145 NIL_145    0.000
2123 C_2292 31.363 15.678 15.312 c3 146 NIL_146    0.000
2124 C_243 30.529 15.239 14.116 c 146 NIL_146    0.000
2125 O 29.355 15.289 14.068 o 146 NIL_146    0.000
2126 H_22921 31.915 14.806 15.673 h1 146 NIL_146    0.000
2127 H_22922 32.070 16.435 14.964 h1 146 NIL_146    0.000
2128 C_2474 21.569 10.029 0.838 c3 147 NIL_147    0.000
2129 C_2473 20.271 9.614 0.059 c3 147 NIL_147    0.000
2130 C_2475 22.576 10.063 -0.408 c3 147 NIL_147    0.000
2131 C_2478 21.894 9.054 2.040 c 147 NIL_147    0.000
2132 N 21.456 11.398 1.386 n 147 NIL_147    0.000
2133 C_2472 20.670 9.206 -1.405 c3 147 NIL_147    0.000
2134 N 21.864 9.932 -1.741 n 147 NIL_147    0.000
2135 O 22.315 7.937 1.816 o 147 NIL_147    0.000
2136 C_2477 19.614 9.267 -2.499 c 147 NIL_147    0.000
2137 O 18.444 9.076 -2.240 o 147 NIL_147    0.000
2138 H_2472 20.972 8.156 -1.369 h1 147 NIL_147    0.000
2139 H_24751 23.126 10.964 -0.400 h1 147 NIL_147    0.000
2140 H_24752 23.275 9.227 -0.324 h1 147 NIL_147    0.000
2141 H_24731 19.595 10.471 0.018 hc 147 NIL_147    0.000
2142 H_24732 19.752 8.795 0.564 hc 147 NIL_147    0.000
2143 C_2521 20.449 12.704 -9.880 c3 148 NIL_148    0.000
2144 C_2522 21.576 12.842 -10.878 c3 148 NIL_148    0.000
2145 C_3506 22.901 13.248 -10.114 c3 148 NIL_148    0.000
2146 H_35061 23.160 12.501 -9.347 hc 148 NIL_148    0.000
2147 H_35062 22.733 14.196 -9.643 hc 148 NIL_148    0.000
2148 H_35063 23.732 13.320 -10.814 hc 148 NIL_148    0.000
2149 H_25221 21.399 13.494 -11.654 hc 148 NIL_148    0.000
2150 H_25222 21.694 11.896 -11.441 hc 148 NIL_148    0.000
2151 H_25211 20.308 13.682 -9.415 h1 148 NIL_148    0.000
2152 H_25212 19.540 12.440 -10.426 h1 148 NIL_148    0.000
2153 C_111 23.318 5.911 17.069 c3 149 NIL_149    0.000
2154 C_110 23.835 7.303 17.484 c3 149 NIL_149    0.000
2155 N 21.907 5.824 17.497 n3 149 NIL_149    0.000
2156 C_109 22.724 7.785 18.458 c3 149 NIL_149    0.000
2157 N 24.004 8.176 16.297 n 149 NIL_149    0.000
2158 C_137 25.142 7.156 18.249 c 149 NIL_149    0.000
2159 C_108 21.818 6.563 18.763 c3 149 NIL_149    0.000
2160 O 25.375 6.183 18.934 o 149 NIL_149    0.000
2161 C_113 20.421 7.000 19.198 c 149 NIL_149    0.000
2162 O 19.520 6.274 19.566 o 149 NIL_149    0.000
2163 H_108 22.260 5.976 19.572 h1 149 NIL_149    0.000
2164 H_1091 22.134 8.561 17.961 hc 149 NIL_149    0.000
2165 H_1092 23.145 8.206 19.375 hc 149 NIL_149    0.000
2166 H_1111 23.412 5.763 15.990 h1 149 NIL_149    0.000
2167 H_1112 23.893 5.147 17.598 h1 149 NIL_149    0.000
2168 C_2855 29.470 12.982 6.943 c 150 NIL_150    0.000
2169 C_2849 30.385 13.563 5.845 c3 150 NIL_150    0.000
2170 O 28.571 12.232 6.620 o 150 NIL_150    0.000
2171 C_2848 30.545 12.000 5.823 c3 150 NIL_150    0.000
2172 C_2850 29.641 14.233 4.593 c3 150 NIL_150    0.000
2173 N 31.381 14.430 6.529 n 150 NIL_150    0.000
2174 C_2847 30.612 12.931 3.289 c3 150 NIL_150    0.000
2175 N 30.101 13.682 3.243 n 150 NIL_150    0.000
2176 C_2852 31.060 11.500 2.443 c 150 NIL_150    0.000
2177 O 31.660 10.542 2.866 o 150 NIL_150    0.000
2178 H_2847 32.095 13.699 2.942 h1 150 NIL_150    0.000
2179 H_28501 28.571 14.045 4.674 h1 150 NIL_150    0.000
2180 H_28502 29.807 15.315 4.611 h1 150 NIL_150    0.000
2181 H_28481 30.424 11.505 5.145 hc 150 NIL_150    0.000
2182 H_28482 32.006 12.007 5.731 hc 150 NIL_150    0.000
2183 C_3520 30.511 8.653 -8.932 c3 151 NIL_151    0.000
2184 C_3007 29.159 9.153 -9.469 c3 151 NIL_151    0.000
2185 C_3006 29.294 10.581 -10.017 c3 151 NIL_151    0.000
2186 H_30061 29.997 10.592 -10.853 h1 151 NIL_151    0.000
2187 H_30062 28.319 10.926 -10.372 h1 151 NIL_151    0.000
2188 H_30071 28.810 8.483 -10.256 hc 151 NIL_151    0.000
2189 H_30072 28.421 9.140 -8.665 hc 151 NIL_151    0.000
2190 H_35201 30.975 9.299 -8.233 hc 151 NIL_151    0.000
2191 H_35202 31.242 8.582 -9.732 hc 151 NIL_151    0.000
2192 H_35203 30.391 7.669 -8.475 hc 151 NIL_151    0.000
2193 C_262 33.357 14.044 19.435 c 152 NIL_152    0.000
2194 C_257 33.013 15.454 18.979 c3 152 NIL_152    0.000
2195 O 34.438 13.649 19.823 o 152 NIL_152    0.000
2196 N 33.638 15.918 17.737 n3 152 NIL_152    0.000
2197 C_258 31.509 15.527 18.625 c3 152 NIL_152    0.000
2198 C_260 32.787 17.017 17.231 c3 152 NIL_152    0.000
2199 C_259 31.328 16.668 17.599 c3 152 NIL_152    0.000
2200 N 30.550 16.234 16.414 n 152 NIL_152    0.000
2201 C_271 30.677 17.848 18.303 c 152 NIL_152    0.000
2202 O 31.319 18.638 18.965 o 152 NIL_152    0.000
2203 H_2601 32.905 17.144 16.153 h1 152 NIL_152    0.000
2204 H_2602 33.065 17.943 17.740 h1 152 NIL_152    0.000
2205 H_2581 31.204 14.586 18.163 hc 152 NIL_152    0.000
2206 H_2582 30.896 15.688 19.515 hc 152 NIL_152    0.000
2207 H_257 33.235 16.151 19.790 h1 152 NIL_152    0.000
2208 N 31.465 13.292 -3.923 n 153 NIL_153    0.000
2209 C_2946 30.084 12.988 -4.364 c3 153 NIL_153    0.000
2210 C_2945 30.062 11.667 -5.194 c3 153 NIL_153    0.000
2211 C_2947 29.556 13.918 -5.525 c3 153 NIL_153    0.000
2212 C_2958 29.178 12.845 -3.078 c 153 NIL_153    0.000
2213 C_2944 30.472 12.016 -6.660 c3 153 NIL_153    0.000
2214 N 29.600 13.229 -6.871 n 153 NIL_153    0.000
2215 O 28.050 12.405 -3.175 o 153 NIL_153    0.000
2216 C_2949 30.069 11.030 -7.739 c 153 NIL_153    0.000
2217 O 29.890 9.893 -7.429 o 153 NIL_153    0.000
2218 H_2944 31.561 12.098 -6.715 h1 153 NIL_153    0.000
2219 H_29471 28.531 14.051 -5.518 h1 153 NIL_153    0.000
2220 H_29472 29.696 15.351 -4.905 h1 153 NIL_153    0.000
2221 H_29451 29.039 11.284 -5.206 hc 153 NIL_153    0.000
2222 H_29452 30.712 10.905 -4.758 hc 153 NIL_153    0.000
2223 C_1480 19.417 19.508 5.729 c3 154 NIL_154    0.000
2224 C_1481 19.776 19.372 4.243 c3 154 NIL_154    0.000
2225 C_3528 20.423 18.009 3.972 c3 154 NIL_154    0.000
2226 H_35281 19.735 17.227 4.208 hc 154 NIL_154    0.000
2227 H_35282 21.212 18.200 4.088 hc 154 NIL_154    0.000
2228 H_35283 20.630 17.889 2.934 hc 154 NIL_154    0.000
2229 H_14811 20.377 20.043 4.243 hc 154 NIL_154    0.000
2230 H_14812 18.877 19.474 3.633 hc 154 NIL_154    0.000
2231 H_14801 18.988 20.496 5.912 h1 154 NIL_154    0.000
2232 H_14802 18.674 18.749 5.989 h1 154 NIL_154    0.000
2233 C_2948 29.758 13.831 -8.233 c 155 NIL_155    0.000
2234 C_2937 29.919 12.884 -9.481 c3 155 NIL_155    0.000
2235 O 29.438 14.990 -8.378 o 155 NIL_155    0.000
2236 C_2936 31.273 13.020 -10.259 c3 155 NIL_155    0.000
2237 C_2938 28.921 13.171 -10.696 c3 155 NIL_155    0.000
2238 N 29.776 11.498 -8.986 n 155 NIL_155    0.000
2239 C_2935 30.997 13.412 -11.758 c3 155 NIL_155    0.000
2240 N 29.609 13.164 -12.043 n 155 NIL_155    0.000
2241 C_2939 31.886 12.809 -12.833 c 155 NIL_155    0.000
2242 O 33.005 12.439 -12.560 o 155 NIL_155    0.000
2243 H_2935 31.131 14.494 -11.849 h1 155 NIL_155    0.000
2244 H_29381 28.120 12.428 -10.702 h1 155 NIL_155    0.000
2245 H_29382 28.475 14.159 -10.561 h1 155 NIL_155    0.000
2246 H_29361 31.792 12.059 -10.231 hc 155 NIL_155    0.000
2247 H_29362 31.917 13.763 -9.785 hc 155 NIL_155    0.000
2248 C_1297 25.308 19.347 -17.895 c 156 NIL_156    0.000
2249 C_1292 24.081 19.835 -16.958 c3 156 NIL_156    0.000
2250 O 25.097 18.529 -18.768 o 156 NIL_156    0.000
2251 NH 26.626 19.840 -17.734 n 156 NIL_156    0.000
2252 N 22.621 19.296 -17.090 n 156 NIL_156    0.000
2253 C_1293 24.448 19.591 -15.438 c3 156 NIL_156    0.000
2254 C_3668 27.972 19.640 -18.534 c3 156 NIL_156    0.000
2255 C_1295 22.293 18.721 -15.728 c3 156 NIL_156    0.000
2256 C_1294 23.162 19.355 -14.573 c3 156 NIL_156    0.000
2257 C_3656 28.764 18.229 -18.381 c2 156 NIL_156    0.000
2258 N 22.598 20.639 -14.098 n 156 NIL_156    0.000
2259 C_1306 23.442 18.447 -13.318 c 156 NIL_156    0.000
2260 C_3654 29.799 17.865 -19.159 c2 156 NIL_156    0.000
2261 C_3658 28.483 17.275 -17.478 c2 156 NIL_156    0.000
2262 C_3544 22.690 21.671 -15.127 c3 156 NIL_156    0.000
2263 O 24.129 17.452 -13.430 o 156 NIL_156    0.000
2264 C_3652 30.463 16.688 -19.064 c2 156 NIL_156    0.000
2265 C_3660 29.147 16.098 -17.376 c2 156 NIL_156    0.000
2266 C_3546 24.138 22.120 -15.361 c3 156 NIL_156    0.000
2267 C_3574 30.172 15.735 -18.164 c2 156 NIL_156    0.000
2268 C_3548 24.191 23.138 -16.507 c3 156 NIL_156    0.000
2269 C_2831 30.831 14.403 -18.090 c 156 NIL_156    0.000
2270 O 31.622 14.040 -18.937 o 156 NIL_156    0.000
2271 H_35481 23.610 24.026 -16.251 hc 156 NIL_156    0.000
2272 H_35482 23.778 22.701 -17.419 hc 156 NIL_156    0.000
2273 H_35483 25.222 23.437 -16.700 hc 156 NIL_156    0.000
2274 H_35461 24.722 21.359 -15.684 hc 156 NIL_156    0.000
2275 H_35462 24.539 22.564 -14.447 hc 156 NIL_156    0.000
2276 H_3660 28.814 15.399 -16.630 ha 156 NIL_156    0.000
2277 H_3652 31.271 16.498 -19.766 ha 156 NIL_156    0.000
2278 H_35441 22.090 22.531 -14.818 h1 156 NIL_156    0.000
2279 H_35442 22.278 21.272 -16.058 h1 156 NIL_156    0.000
2280 H_3658 27.661 17.455 -16.791 ha 156 NIL_156    0.000
2281 H_3654 30.119 18.563 -19.928 ha 156 NIL_156    0.000
2282 H_12951 22.508 17.655 -15.752 h1 156 NIL_156    0.000
2283 H_12952 21.230 18.869 -15.518 h1 156 NIL_156    0.000
2284 H_36681 28.651 20.441 -18.234 h1 156 NIL_156    0.000
2285 H_36682 27.744 19.786 -19.594 h1 156 NIL_156    0.000
2286 H_12931 25.072 18.701 -15.376 hc 156 NIL_156    0.000
2287 H_12932 25.067 20.328 -14.971 hc 156 NIL_156    0.000
2288 H_1292 24.025 20.917 -17.110 h1 156 NIL_156    0.000
2289 HH 26.729 20.505 -16.982 hn 156 NIL_156    0.000
2290 C_1343 21.804 19.159 11.869 c3 157 NIL_157    0.000
2291 NH 20.949 19.491 13.019 n 157 NIL_157    0.000
2292 C_1335 21.381 19.770 10.406 c3 157 NIL_157    0.000
2293 C_1323 21.556 19.025 8.950 c3 157 NIL_157    0.000
2294 C_1319 20.403 19.309 7.969 c 157 NIL_157    0.000
2295 NH 22.819 19.164 8.171 n 157 NIL_157    0.000
2296 O 19.289 19.508 8.408 o 157 NIL_157    0.000
2297 H_1323 21.459 17.955 9.150 h1 157 NIL_157    0.000
2298 H_13351 20.306 19.944 10.490 hc 157 NIL_157    0.000
2299 H_13352 21.819 20.768 10.325 hc 157 NIL_157    0.000
2300 H_13431 21.799 18.070 11.785 h1 157 NIL_157    0.000
2301 H_13432 22.828 19.466 12.099 h1 157 NIL_157    0.000
2302 HH 23.660 19.150 8.729 hn 157 NIL_157    0.000
2303 HH 20.310 20.268 12.943 hn 157 NIL_157    0.000
2304 N 21.590 10.415 -11.955 n 158 NIL_158    0.000
2305 C_2355 20.657 9.394 -11.644 c3 158 NIL_158    0.000
2306 C_2358 22.219 10.708 -10.544 c3 158 NIL_158    0.000
2307 C_2356 20.102 9.681 -10.202 c3 158 NIL_158    0.000
2308 C_2360 19.674 9.136 -12.778 c 158 NIL_158    0.000
2309 C_2357 21.198 10.443 -9.381 c3 158 NIL_158    0.000
2310 O 18.618 8.576 -12.568 o 158 NIL_158    0.000
2311 N 20.669 11.711 -8.829 n 158 NIL_158    0.000
2312 C_2369 21.761 9.585 -8.179 c 158 NIL_158    0.000
2313 O 22.506 8.653 -8.399 o 158 NIL_158    0.000
2314 H_23561 19.215 10.316 -10.273 hc 158 NIL_158    0.000
2315 H_23562 19.819 8.752 -9.702 hc 158 NIL_158    0.000
2316 H_23581 22.585 11.759 -10.472 h1 158 NIL_158    0.000
2317 H_23582 23.103 10.184 -10.475 h1 158 NIL_158    0.000
2318 H_2355 21.254 8.480 -11.583 h1 158 NIL_158    0.000
2319 O 28.576 15.994 15.385 o 159 NIL_159    0.000
2320 C_3865 29.204 16.359 16.307 c 159 NIL_159    0.000
2321 C_3861 28.490 17.056 17.447 c3 159 NIL_159    0.000
2322 N 29.349 18.009 18.120 n 159 NIL_159    0.000
2323 C_3862 27.208 17.824 17.053 c3 159 NIL_159    0.000
2324 C_3864 28.534 19.117 18.632 c3 159 NIL_159    0.000
2325 C_3863 27.154 19.103 17.927 c3 159 NIL_159    0.000
2326 N 27.044 20.301 17.083 n 159 NIL_159    0.000
2327 C_3869 26.040 19.022 18.969 c 159 NIL_159    0.000
2328 H 27.882 20.565 16.588 hn 159 NIL_159    0.000
2329 O 26.116 18.276 19.923 o 159 NIL_159    0.000
2330 H_38641 29.042 20.065 18.438 h1 159 NIL_159    0.000
2331 H_38642 28.400 18.992 19.710 h1 159 NIL_159    0.000
2332 H_38621 27.270 18.110 16.001 hc 159 NIL_159    0.000
2333 H_38622 26.318 17.206 17.194 hc 159 NIL_159    0.000
2334 H_3861 28.235 16.282 18.176 h1 159 NIL_159    0.000
2335 C_2376 22.091 9.117 9.084 c3 160 NIL_160    0.000
2336 C_2372 20.785 9.389 8.315 c 160 NIL_160    0.000
2337 NH 23.197 9.469 8.150 n 160 NIL_160    0.000
2338 C_2388 22.296 9.749 10.586 c3 160 NIL_160    0.000
2339 O 19.741 9.488 8.927 o 160 NIL_160    0.000
2340 C_2396 21.686 9.236 12.023 c3 160 NIL_160    0.000
2341 NH 22.495 8.355 12.882 n 160 NIL_160    0.000
2342 H_23961 21.484 10.128 12.620 h1 160 NIL_160    0.000
2343 H_23962 20.725 8.748 11.843 h1 160 NIL_160    0.000
2344 H_23881 21.991 10.794 10.497 hc 160 NIL_160    0.000
2345 H_23882 23.376 9.793 10.741 hc 160 NIL_160    0.000
2346 H_2376 22.129 8.029 9.188 h1 160 NIL_160    0.000
2347 HH 22.485 7.366 12.679 hn 160 NIL_160    0.000
2348 HH 24.104 9.511 8.591 hn 160 NIL_160    0.000
2349 N 21.864 18.981 2.893 n 161 NIL_161    0.000
2350 C_1312 21.684 20.227 3.408 c3 161 NIL_161    0.000
2351 C_1315 22.434 18.401 4.983 c3 161 NIL_161    0.000
2352 C_1313 22.073 20.521 4.913 c3 161 NIL_161    0.000
2353 C_1317 22.366 20.985 2.330 c 161 NIL_161    0.000
2354 C_1314 21.889 19.298 5.802 c3 161 NIL_161    0.000
2355 O 22.823 22.092 2.530 o 161 NIL_161    0.000
2356 N 20.579 19.332 6.599 n 161 NIL_161    0.000
2357 C_1320 22.999 19.123 6.799 c 161 NIL_161    0.000
2358 O 24.130 19.031 6.369 o 161 NIL_161    0.000
2359 H_13131 23.137 20.753 4.928 hc 161 NIL_161    0.000
2360 H_13132 21.532 21.383 5.310 hc 161 NIL_161    0.000
2361 H_13151 22.804 17.588 4.651 h1 161 NIL_161    0.000
2362 H_13152 20.246 16.736 5.223 h1 161 NIL_161    0.000
2363 H_1312 20.636 20.594 3.057 h1 161 NIL_161    0.000
2364 N 22.975 18.806 -12.060 n 162 NIL_162    0.000
2365 C_1302 21.952 19.796 -11.845 c3 162 NIL_162    0.000
2366 C_1305 23.220 18.185 -10.705 c3 162 NIL_162    0.000
2367 C_1303 21.933 20.172 -10.315 c3 162 NIL_162    0.000
2368 C_1307 22.047 20.915 -12.876 c 162 NIL_162    0.000
2369 C_1304 22.772 19.130 -9.498 c3 162 NIL_162    0.000
2370 O 21.647 22.034 -12.628 o 162 NIL_162    0.000
2371 N 23.944 19.809 -8.914 n 162 NIL_162    0.000
2372 C_1316 22.021 18.425 -8.305 c 162 NIL_162    0.000
2373 O 21.314 17.459 -8.507 o 162 NIL_162    0.000
2374 H_13031 22.370 21.164 -10.175 hc 162 NIL_162    0.000
2375 H_13032 20.904 20.203 -9.951 hc 162 NIL_162    0.000
2376 H_13051 24.055 18.044 -10.765 h1 162 NIL_162    0.000
2377 H_13052 22.651 17.255 -10.658 h1 162 NIL_162    0.000
2378 H_1302 21.003 19.299 -12.067 h1 162 NIL_162    0.000
2379 N 21.722 9.460 3.363 n 163 NIL_163    0.000
2380 C_2365 21.153 10.720 3.762 c3 163 NIL_163    0.000
2381 C_2368 21.964 8.732 4.679 c3 163 NIL_163    0.000
2382 C_2366 21.748 11.040 5.177 c3 163 NIL_163    0.000
2383 C_2370 21.280 11.782 2.684 c 163 NIL_163    0.000
2384 C_2367 21.891 9.696 5.962 c3 163 NIL_163    0.000
2385 O 21.233 12.962 2.965 o 163 NIL_163    0.000
2386 N 20.764 9.513 6.934 n 163 NIL_163    0.000
2387 C_2373 23.187 9.683 6.787 c 163 NIL_163    0.000
2388 O 24.244 9.893 6.227 o 163 NIL_163    0.000
2389 H_23661 22.732 11.490 5.052 hc 163 NIL_163    0.000
2390 H_23662 21.241 11.768 5.765 hc 163 NIL_163    0.000
2391 H_23681 22.951 8.267 4.636 h1 163 NIL_163    0.000
2392 H_23682 21.218 7.940 4.784 h1 163 NIL_163    0.000
2393 H_2365 20.079 10.548 3.877 h1 163 NIL_163    0.000
2394 C_3514 32.330 12.707 4.541 c3 164 NIL_164    0.000
2395 C_3013 32.108 14.419 4.248 c3 164 NIL_164    0.000
2396 C_3012 32.385 14.884 5.571 c3 164 NIL_164    0.000
2397 H_30121 33.368 14.543 5.906 h1 164 NIL_164    0.000
2398 H_30122 32.380 15.977 5.541 h1 164 NIL_164    0.000
2399 H_30131 32.906 14.631 3.485 hc 164 NIL_164    0.000
2400 H_30132 31.184 14.755 3.790 hc 164 NIL_164    0.000
2401 H_35141 32.944 12.366 4.581 hc 164 NIL_164    0.000
2402 H_35142 32.218 12.170 3.198 hc 164 NIL_164    0.000
2403 H_35143 31.785 12.849 4.302 hc 164 NIL_164    0.000
2404 C_1415 21.869 18.220 -5.656 c3 165 NIL_165    0.000
2405 C_1414 22.225 19.161 -4.413 c3 165 NIL_165    0.000
2406 N 22.296 18.840 -6.983 n 165 NIL_165    0.000
2407 C_1413 23.296 20.015 -5.159 c3 165 NIL_165    0.000
2408 N 21.074 20.002 -3.985 n 165 NIL_165    0.000
2409 C_1426 22.874 18.521 -3.127 c 165 NIL_165    0.000
2410 C_1412 22.918 20.086 -6.676 c3 165 NIL_165    0.000
2411 O 23.933 17.931 -3.209 o 165 NIL_165    0.000
2412 C_1417 24.067 20.305 -7.649 c 165 NIL_165    0.000
2413 O 25.089 20.862 -7.305 o 165 NIL_165    0.000
2414 H_1412 22.218 20.908 -6.835 h1 165 NIL_165    0.000
2415 H_14131 24.259 19.507 -5.078 hc 165 NIL_165    0.000
2416 H_14132 23.398 21.006 -4.714 hc 165 NIL_165    0.000
2417 H_14151 22.449 17.301 -5.577 h1 165 NIL_165    0.000
2418 H_14152 21.021 17.838 -5.539 h1 165 NIL_165    0.000
2419 C_2285 23.314 7.686 15.088 c3 166 NIL_166    0.000
2420 C_766 22.938 8.773 14.094 c 166 NIL_166    0.000
2421 O 22.967 9.951 14.381 o 166 NIL_166    0.000
2422 H_22851 22.395 7.172 15.378 h1 166 NIL_166    0.000
2423 H_22852 23.963 6.979 14.562 h1 166 NIL_166    0.000
2424 N 22.297 18.705 -1.877 n 167 NIL_167    0.000
2425 C_1422 20.908 19.038 -1.694 c3 167 NIL_167    0.000
2426 C_1425 22.838 18.436 -0.490 c3 167 NIL_167    0.000
2427 C_1423 20.661 19.387 -0.174 c3 167 NIL_167    0.000
2428 C_1427 20.454 20.023 -2.765 c 167 NIL_167    0.000
2429 C_1424 21.954 19.101 0.664 c3 167 NIL_167    0.000
2430 O 19.568 20.826 -2.550 o 167 NIL_167    0.000
2431 C_1428 21.783 18.222 1.933 c 167 NIL_167    0.000
2432 N 22.518 20.392 1.108 n 167 NIL_167    0.000
2433 O 21.670 17.006 1.856 o 167 NIL_167    0.000
2434 H_14231 20.388 20.441 -0.078 hc 167 NIL_167    0.000
2435 H_14232 19.829 18.791 0.209 hc 167 NIL_167    0.000
2436 H_14251 23.866 18.800 -0.425 h1 167 NIL_167    0.000
2437 H_14252 22.841 17.353 -0.343 h1 167 NIL_167    0.000
2438 H_1422 20.350 18.124 -1.908 h1 167 NIL_167    0.000
2439 C_188 22.327 3.638 18.545 c3 168 NIL_168    0.000
2440 C_112 21.432 4.436 17.586 c3 168 NIL_168    0.000
2441 H_1121 21.460 3.984 16.591 h1 168 NIL_168    0.000
2442 H_1122 20.398 4.424 17.945 h1 168 NIL_168    0.000
2443 H_1881 21.955 2.617 18.654 hc 168 NIL_168    0.000
2444 H_1882 22.315 4.107 19.530 hc 168 NIL_168    0.000
2445 H_1883 23.362 3.601 18.190 hc 168 NIL_168    0.000
2446 N 29.892 10.817 18.984 n 169 NIL_169    0.000
2447 C_133 30.756 10.740 17.819 c3 169 NIL_169    0.000
2448 C_136 30.612 11.525 20.060 c3 169 NIL_169    0.000
2449 C_134 32.197 10.967 18.318 c3 169 NIL_169    0.000
2450 C_138 30.564 9.459 17.048 c 169 NIL_169    0.000
2451 C.fc 32.061 11.835 19.586 c3 169 NIL_169    0.000
2452 O 31.439 8.994 16.346 o 169 NIL_169    0.000
2453 NH 32.239 13.272 19.311 n 169 NIL_169    0.000
2454 H.fc 32.787 11.529 20.343 h1 169 NIL_169    0.000
2455 H_1341 32.815 11.452 17.562 hc 169 NIL_169    0.000
2456 H_1342 32.645 10.007 18.582 hc 169 NIL_169    0.000
2457 H_1361 30.642 10.876 20.940 h1 169 NIL_169    0.000
2458 H_1362 30.086 12.450 20.306 h1 169 NIL_169    0.000
2459 H_133 30.478 11.557 17.148 h1 169 NIL_169    0.000
2460 HH 31.409 13.738 18.977 hn 169 NIL_169    0.000
2461 C_737 19.475 10.623 19.716 c3 170 NIL_170    0.000
2462 C.fb 19.126 9.210 19.169 c3 170 NIL_170    0.000
2463 N 19.336 11.614 18.630 n 170 NIL_170    0.000
2464 C_735 18.481 9.536 17.806 c3 170 NIL_170    0.000
2465 NH 20.319 8.352 19.043 n 170 NIL_170    0.000
2466 C_734 19.056 10.907 17.396 c3 170 NIL_170    0.000
2467 C_739 18.172 11.695 16.462 c 170 NIL_170    0.000
2468 O 17.498 11.155 15.608 o 170 NIL_170    0.000
2469 H_734 20.010 10.759 16.880 h1 170 NIL_170    0.000
2470 H_7351 18.680 8.766 17.057 hc 170 NIL_170    0.000
2471 H_7352 17.399 9.627 17.936 hc 170 NIL_170    0.000
2472 H.fb 18.404 8.713 19.821 h1 170 NIL_170    0.000
2473 H_7371 18.780 10.887 20.516 h1 170 NIL_170    0.000
2474 H_7372 20.498 10.638 20.100 h1 170 NIL_170    0.000
2475 HH 21.151 8.829 18.732 hn 170 NIL_170    0.000
2476 C_2526 19.000 9.521 -4.857 c3 171 NIL_171    0.000
2477 C_2527 18.677 10.963 -5.312 c3 171 NIL_171    0.000
2478 C_3504 17.734 10.934 -6.531 c3 171 NIL_171    0.000
2479 H_35041 17.552 11.953 -6.881 hc 171 NIL_171    0.000
2480 H_35042 16.783 10.489 -6.239 hc 171 NIL_171    0.000
2481 H_35043 18.156 10.352 -7.354 hc 171 NIL_171    0.000
2482 H_25271 19.524 11.485 -5.598 hc 171 NIL_171    0.000
2483 H_25272 18.286 11.538 -4.529 hc 171 NIL_171    0.000
2484 H_25261 18.081 9.069 -4.480 h1 171 NIL_171    0.000
2485 H_25262 19.372 8.922 -5.695 h1 171 NIL_171    0.000
2486 C_2858 30.485 14.300 8.929 c3 172 NIL_172    0.000
2487 C_2854 31.503 14.756 7.866 c 172 NIL_172    0.000
2488 NH 29.663 13.234 8.291 n 172 NIL_172    0.000
2489 C_2870 31.150 14.087 10.421 c3 172 NIL_172    0.000
2490 O 32.455 15.426 8.210 o 172 NIL_172    0.000
2491 C_2878 30.394 14.263 11.868 c3 172 NIL_172    0.000
2492 NH 31.171 14.753 13.022 n 172 NIL_172    0.000
2493 H_28781 29.580 14.979 11.720 h1 172 NIL_172    0.000
2494 H_28782 29.938 13.309 12.143 h1 172 NIL_172    0.000
2495 H_28701 31.960 14.818 10.455 hc 172 NIL_172    0.000
2496 H_28702 31.646 13.115 10.425 hc 172 NIL_172    0.000
2497 H_2858 29.817 15.160 9.021 h1 172 NIL_172    0.000
2498 HH 32.177 14.671 13.010 hn 172 NIL_172    0.000
2499 HH 29.054 12.741 8.926 hn 172 NIL_172    0.000
2500 C_1478 23.205 21.070 0.014 c3 173 NIL_173    0.000
2501 C_1479 22.212 21.651 -1.005 c3 173 NIL_173    0.000
2502 C_3530 21.326 22.711 -0.336 c3 173 NIL_173    0.000
2503 H_35301 20.761 22.267 0.487 hc 173 NIL_173    0.000
2504 H_35302 20.621 23.126 -1.059 hc 173 NIL_173    0.000
2505 H_35303 21.944 23.521 0.057 hc 173 NIL_173    0.000
2506 H_14791 21.587 20.854 -1.409 hc 173 NIL_173    0.000
2507 H_14792 22.758 22.100 -1.836 hc 173 NIL_173    0.000
2508 H_14781 23.851 20.347 -0.486 h1 173 NIL_173    0.000
2509 H_14782 23.822 21.872 0.425 h1 173 NIL_173    0.000
2510 C_3010 30.636 10.723 0.349 c3 174 NIL_174    0.000
2511 C_3011 31.777 10.773 -0.679 c3 174 NIL_174    0.000
2512 C_3516 33.134 10.652 0.028 c3 174 NIL_174    0.000
2513 H_35161 33.268 11.473 0.736 hc 174 NIL_174    0.000
2514 H_35162 33.945 10.688 -0.702 hc 174 NIL_174    0.000
2515 H_35163 33.194 9.708 0.574 hc 174 NIL_174    0.000
2516 H_30111 31.734 11.710 -1.237 hc 174 NIL_174    0.000
2517 H_30112 31.662 9.954 -1.392 hc 174 NIL_174    0.000
2518 H_30101 29.676 10.764 -0.166 h1 174 NIL_174    0.000
2519 H_30102 30.697 9.781 0.900 h1 174 NIL_174    0.000
2520 C_1477 19.568 20.391 -5.933 c3 175 NIL_175    0.000
2521 C_1476 20.672 20.950 -5.024 c3 175 NIL_175    0.000
2522 C_3532 20.013 19.098 -6.628 c3 175 NIL_175    0.000
2523 H_35321 20.857 19.279 -7.205 hc 175 NIL_175    0.000
2524 H_35322 19.227 18.737 -7.293 hc 175 NIL_175    0.000
2525 H_35323 19.991 18.456 -5.976 hc 175 NIL_175    0.000
2526 H_14761 21.544 21.201 -5.627 h1 175 NIL_175    0.000
2527 H_14762 20.303 21.861 -4.543 h1 175 NIL_175    0.000
2528 H_14771 19.306 21.141 -6.685 hc 175 NIL_175    0.000
2529 H_14772 18.681 20.184 -5.330 hc 175 NIL_175    0.000
2530 C_1472 25.630 18.391 -9.999 c3 176 NIL_176    0.000
2531 C_1471 25.067 19.810 -9.844 c3 176 NIL_176    0.000
2532 C_3542 26.675 18.339 -11.120 c3 176 NIL_176    0.000
2533 H_35421 27.026 17.314 -11.256 hc 176 NIL_176    0.000
2534 H_35422 27.530 18.973 -10.873 hc 176 NIL_176    0.000
2535 H_35423 26.242 18.688 -12.060 hc 176 NIL_176    0.000
2536 H_14711 25.844 20.482 -9.473 h1 176 NIL_176    0.000
2537 H_14712 24.714 20.171 -10.813 h1 176 NIL_176    0.000
2538 H_14721 25.035 17.605 -10.082 hc 176 NIL_176    0.000
2539 H_14722 26.069 18.062 -9.058 hc 176 NIL_176    0.000
2540 C_660 35.040 16.326 17.915 c3 177 NIL_177    0.000
2541 C_662 35.120 17.540 18.853 c3 177 NIL_177    0.000
2542 H_6621 34.535 18.370 18.452 hc 177 NIL_177    0.000
2543 H_6622 36.152 17.876 18.958 hc 177 NIL_177    0.000
2544 H_6623 34.735 17.281 19.840 hc 177 NIL_177    0.000
2545 H_6601 35.464 16.594 16.943 h1 177 NIL_177    0.000
2546 H_6602 35.616 15.494 18.332 h1 177 NIL_177    0.000
2547 C_3009 32.462 14.252 -5.971 c3 178 NIL_178    0.000
2548 C_3008 32.435 13.072 -4.990 c3 178 NIL_178    0.000
2549 C_3518 31.117 14.455 -6.623 c3 178 NIL_178    0.000
2550 H_35181 30.777 14.234 -6.444 hc 178 NIL_178    0.000
2551 H_35182 31.109 13.602 -7.237 hc 178 NIL_178    0.000
2552 H_35183 31.094 15.274 -7.315 hc 178 NIL_178    0.000
2553 H_30081 32.174 12.155 -5.519 h1 178 NIL_178    0.000
2554 H_30082 33.424 12.945 -4.541 h1 178 NIL_178    0.000
2555 H_30091 33.209 14.070 -6.747 hc 178 NIL_178    0.000
2556 H_30092 32.742 15.165 -5.442 hc 178 NIL_178    0.000
2557 C_2299 20.118 19.207 15.307 c3 179 NIL_179    0.000
2558 C_309 21.022 18.778 14.169 c 179 NIL_179    0.000
2559 O 21.794 17.860 14.253 o 179 NIL_179    0.000
2560 H_22991 20.485 20.101 15.584 h1 179 NIL_179    0.000
2561 H_22992 19.128 19.326 14.883 h1 179 NIL_179    0.000
2562 C_769 20.021 21.336 16.534 c3 180 NIL_180    0.000
2563 C_770 19.514 21.443 15.079 c3 180 NIL_180    0.000
2564 H_7701 19.049 20.558 14.759 hc 180 NIL_180    0.000
2565 H_7702 20.344 21.661 14.403 hc 180 NIL_180    0.000
2566 H_7703 18.775 22.237 15.002 hc 180 NIL_180    0.000
2567 H_7691 20.763 20.535 16.696 h1 180 NIL_180    0.000
2568 H_7692 20.535 22.246 16.814 h1 180 NIL_180    0.000
2569 C_3691 27.384 2.493 -19.171 c2 181 NIL_181    0.000
2570 C_3689 28.071 3.657 -19.078 c2 181 NIL_181    0.000
2571 C_3693 27.571 1.427 -18.372 c2 181 NIL_181    0.000
2572 C_3585 29.024 3.889 -18.166 c2 181 NIL_181    0.000
2573 C_3695 28.523 1.669 -17.458 c2 181 NIL_181    0.000
2574 C_3705 26.747 0.037 -18.511 c3 181 NIL_181    0.000
2575 C_1296 29.855 5.120 -18.090 c 181 NIL_181    0.000
2576 C_3697 29.210 2.831 -17.360 c2 181 NIL_181    0.000
2577 NH 27.290 -1.187 -17.681 n 181 NIL_181    0.000
2578 O 29.785 5.995 -18.930 o 181 NIL_181    0.000
2579 C_2350 28.334 -2.121 -17.888 c 181 NIL_181    0.000
2580 C_2345 28.615 -3.355 -16.891 c3 181 NIL_181    0.000
2581 O 29.056 -1.988 -18.855 o 181 NIL_181    0.000
2582 N 29.700 -4.436 -17.016 n 181 NIL_181    0.000
2583 C_2346 28.812 -2.790 -15.396 c3 181 NIL_181    0.000
2584 C_2348 30.258 -4.606 -15.617 c3 181 NIL_181    0.000
2585 C_2347 29.375 -3.926 -14.493 c3 181 NIL_181    0.000
2586 N 28.249 -4.773 -14.050 n 181 NIL_181    0.000
2587 C_2359 30.171 -3.420 -13.228 c 181 NIL_181    0.000
2588 C_3508 27.359 -5.070 -15.168 c3 181 NIL_181    0.000
2589 O 31.078 -2.625 -13.366 o 181 NIL_181    0.000
2590 C_3510 26.637 -3.811 -15.675 c3 181 NIL_181    0.000
2591 C_3512 25.812 -3.164 -14.576 c3 181 NIL_181    0.000
2592 H_35121 25.076 -3.873 -14.193 hc 181 NIL_181    0.000
2593 H_35122 25.287 -2.287 -14.962 hc 181 NIL_181    0.000
2594 H_35123 26.458 -2.849 -13.754 hc 181 NIL_181    0.000
2595 H_35101 26.005 -4.075 -16.528 hc 181 NIL_181    0.000
2596 H_35102 27.332 -3.072 -16.017 hc 181 NIL_181    0.000
2597 H_35081 26.616 -5.802 -14.844 h1 181 NIL_181    0.000
2598 H_35082 27.952 -5.507 -15.975 h1 181 NIL_181    0.000
2599 H_23481 31.217 -4.137 -15.570 h1 181 NIL_181    0.000
2600 H_23482 30.372 -5.671 -15.400 h1 181 NIL_181    0.000
2601 H_23461 29.519 -1.977 -15.446 hc 181 NIL_181    0.000
2602 H_23462 27.870 -2.388 -14.982 hc 181 NIL_181    0.000
2603 H_2345 27.653 -3.917 -16.908 h1 181 NIL_181    0.000
2604 H_3697 29.960 2.897 -16.609 ha 181 NIL_181    0.000
2605 H_37051 25.714 0.214 -18.202 h1 181 NIL_181    0.000
2606 H_37052 26.731 -0.258 -19.564 h1 181 NIL_181    0.000
2607 H_3695 28.766 0.875 -16.756 ha 181 NIL_181    0.000
2608 H_3689 27.845 4.444 -19.795 ha 181 NIL_181    0.000
2609 H_3691 26.634 2.408 -19.952 ha 181 NIL_181    0.000
2610 HH 26.745 -1.356 -16.848 hn 181 NIL_181    0.000
2611 C_3522 40.477 -2.187 -15.152 c3 182 NIL_182    0.000
2612 N 39.635 -1.640 -14.095 n 182 NIL_182    0.000
2613 C_3524 41.865 -2.531 -14.604 c3 182 NIL_182    0.000
2614 C_2829 38.268 -1.346 -14.579 c3 182 NIL_182    0.000
2615 C_3526 42.542 -1.252 -14.091 c3 182 NIL_182    0.000
2616 C_2828 37.763 -2.498 -15.505 c3 182 NIL_182    0.000
2617 C_2830 38.247 -0.209 -15.683 c3 182 NIL_182    0.000
2618 C_2841 37.333 -1.151 -13.328 c 182 NIL_182    0.000
2619 C_2827 38.230 -2.267 -16.991 c3 182 NIL_182    0.000
2620 N 38.503 -0.733 -17.087 n 182 NIL_182    0.000
2621 O 36.130 -1.085 -13.477 o 182 NIL_182    0.000
2622 C_2832 37.239 -3.082 -17.970 c 182 NIL_182    0.000
2623 O 36.768 -2.527 -18.942 o 182 NIL_182    0.000
2624 NH 36.908 -4.437 -17.731 n 182 NIL_182    0.000
2625 C_3643 36.084 -5.503 -18.544 c3 182 NIL_182    0.000
2626 C_3631 34.466 -5.476 -18.382 c2 182 NIL_182    0.000
2627 C_3629 33.618 -6.040 -19.259 c2 182 NIL_182    0.000
2628 C_3633 33.799 -4.893 -17.373 c2 182 NIL_182    0.000
2629 C_3627 32.266 -6.018 -19.151 c2 182 NIL_182    0.000
2630 C_3635 32.447 -4.867 -17.263 c2 182 NIL_182    0.000
2631 C_2378 31.606 -5.425 -18.147 c2 182 NIL_182    0.000
2632 C_2349 30.121 -5.311 -18.067 c 182 NIL_182    0.000
2633 O 29.409 -5.724 -18.958 o 182 NIL_182    0.000
2634 H_3635 32.051 -4.354 -16.446 ha 182 NIL_182    0.000
2635 H_3627 31.684 -6.491 -19.937 ha 182 NIL_182    0.000
2636 H_3633 34.380 -4.397 -16.600 ha 182 NIL_182    0.000
2637 H_3629 34.047 -6.541 -20.123 ha 182 NIL_182    0.000
2638 H_36431 36.448 -6.492 -18.256 h1 182 NIL_182    0.000
2639 H_36432 36.323 -5.362 -19.601 h1 182 NIL_182    0.000
2640 H_2827 39.202 -2.753 -17.104 h1 182 NIL_182    0.000
2641 H_28301 37.264 0.257 -15.667 h1 182 NIL_182    0.000
2642 H_28302 38.993 0.552 -15.436 h1 182 NIL_182    0.000
2643 H_28281 36.672 -2.484 -15.494 hc 182 NIL_182    0.000
2644 H_28282 38.089 -3.471 -15.135 hc 182 NIL_182    0.000
2645 H_35261 43.511 -1.485 -13.648 hc 182 NIL_182    0.000
2646 H_35262 41.931 -0.750 -13.346 hc 182 NIL_182    0.000
2647 H_35263 42.689 -0.552 -14.912 hc 182 NIL_182    0.000
2648 H_35241 42.475 -2.982 -15.388 hc 182 NIL_182    0.000
2649 H_35242 41.764 -3.253 -13.791 hc 182 NIL_182    0.000
2650 H_35221 40.572 -1.441 -15.946 h1 182 NIL_182    0.000
2651 H_35222 40.003 -3.084 -15.558 h1 182 NIL_182    0.000
2652 HH 37.314 -4.823 -16.891 hn 182 NIL_182    0.000
2653 N 28.247 -4.775 -3.788 n 183 NIL_183    0.000
2654 C_2464 29.540 -4.236 -4.267 c3 183 NIL_183    0.000
2655 C_2463 29.254 -2.913 -5.013 c3 183 NIL_183    0.000
2656 C_2465 30.131 -5.011 -5.542 c3 183 NIL_183    0.000
2657 C_2476 30.511 -4.034 -3.038 c 183 NIL_183    0.000
2658 C_2462 28.862 -3.388 -6.538 c3 183 NIL_183    0.000
2659 N 29.683 -4.396 -6.860 n 183 NIL_183    0.000
2660 O 31.615 -3.559 -3.217 o 183 NIL_183    0.000
2661 C_2467 28.639 -2.271 -7.529 c 183 NIL_183    0.000
2662 O 28.280 -1.150 -7.235 o 183 NIL_183    0.000
2663 H_2462 27.817 -3.836 -6.433 h1 183 NIL_183    0.000
2664 H_24651 31.222 -4.971 -5.501 h1 183 NIL_183    0.000
2665 H_24652 29.817 -6.059 -5.515 h1 183 NIL_183    0.000
2666 H_24631 30.126 -2.301 -5.083 hc 183 NIL_183    0.000
2667 H_24632 28.449 -2.330 -4.517 hc 183 NIL_183    0.000
2668 C_268 32.114 7.577 18.154 c3 184 NIL_184    0.000
2669 C_267 32.951 6.381 17.661 c3 184 NIL_184    0.000
2670 C.fa 31.351 7.069 19.396 c3 184 NIL_184    0.000
2671 N 33.239 5.578 18.833 n 184 NIL_184    0.000
2672 C_272 34.192 6.770 16.899 c 184 NIL_184    0.000
2673 C_270 32.200 5.845 19.845 c3 184 NIL_184    0.000
2674 NH 29.961 6.683 19.098 n 184 NIL_184    0.000
2675 O 34.221 7.742 16.172 o 184 NIL_184    0.000
2676 H_2701 32.682 6.055 20.802 h1 184 NIL_184    0.000
2677 H_2702 31.563 4.963 19.948 h1 184 NIL_184    0.000
2678 H.fa 31.345 7.836 20.175 h1 184 NIL_184    0.000
2679 H_267 32.346 5.767 16.987 h1 184 NIL_184    0.000
2680 H_2681 31.437 7.951 17.383 hc 184 NIL_184    0.000
2681 H_2682 32.789 8.380 18.456 hc 184 NIL_184    0.000
2682 HH 29.867 5.768 18.694 hn 184 NIL_184    0.000
2683 C_2530 27.740 -4.507 6.275 c3 185 NIL_185    0.000
2684 C_2531 27.572 -3.013 5.962 c3 185 NIL_185    0.000
2685 C_3500 26.256 -2.767 5.216 c3 185 NIL_185    0.000
2686 H_35001 26.246 -3.317 4.273 hc 185 NIL_185    0.000
2687 H_35002 26.135 -1.703 5.001 hc 185 NIL_185    0.000
2688 H_35003 25.410 -3.100 5.822 hc 185 NIL_185    0.000
2689 H_25311 28.278 -2.685 5.301 hc 185 NIL_185    0.000
2690 H_25312 27.583 -2.441 6.892 hc 185 NIL_185    0.000
2691 H_25301 26.929 -4.831 6.932 h1 185 NIL_185    0.000
2692 H_25302 27.695 -5.082 5.347 h1 185 NIL_185    0.000
2693 C_728 26.462 5.541 17.034 c3 186 NIL_186    0.000
2694 C_727 27.364 4.380 17.499 c3 186 NIL_186    0.000
2695 N 27.147 6.787 17.436 n3 186 NIL_186    0.000
2696 C_726 28.138 5.040 18.667 c3 186 NIL_186    0.000
2697 N 28.255 3.942 16.402 n 186 NIL_186    0.000
2698 C_738 26.529 3.223 18.030 c 186 NIL_186    0.000
2699 C_725 27.656 6.509 18.786 c3 186 NIL_186    0.000
2700 O 25.444 3.392 18.547 o 186 NIL_186    0.000
2701 C_729 28.803 7.382 19.279 c 186 NIL_186    0.000
2702 O 28.722 8.503 19.737 o 186 NIL_186    0.000
2703 H_725 26.835 6.568 19.506 h1 186 NIL_186    0.000
2704 H_7261 29.202 5.014 18.441 hc 186 NIL_186    0.000
2705 H_7262 27.973 4.504 19.604 hc 186 NIL_186    0.000
2706 H_7281 26.287 5.513 15.956 h1 186 NIL_186    0.000
2707 H_7282 25.507 5.482 17.561 h1 186 NIL_186    0.000
2708 C_2960 37.942 -0.317 1.953 c 187 NIL_187    0.000
2709 C_2956 38.446 -1.189 0.739 c3 187 NIL_187    0.000
2710 O 37.133 0.570 1.768 o 187 NIL_187    0.000
2711 C_2955 39.579 -0.533 -0.114 c3 187 NIL_187    0.000
2712 C_2957 37.381 -1.437 -0.431 c3 187 NIL_187    0.000
2713 N 38.953 -2.462 1.305 n 187 NIL_187    0.000
2714 C_2954 39.102 -0.347 -1.599 c3 187 NIL_187    0.000
2715 N 37.938 -1.165 -1.814 n 187 NIL_187    0.000
2716 C_2959 40.131 -0.564 -2.695 c 187 NIL_187    0.000
2717 O 41.312 -0.379 -2.484 o 187 NIL_187    0.000
2718 H_2954 38.765 0.686 -1.712 h1 187 NIL_187    0.000
2719 H_29571 37.021 -2.467 -0.388 h1 187 NIL_187    0.000
2720 H_29572 36.527 -0.772 -0.274 h1 187 NIL_187    0.000
2721 H_29551 40.448 -1.195 -0.103 hc 187 NIL_187    0.000
2722 H_29552 39.879 0.424 0.312 hc 187 NIL_187    0.000
2723 N 34.307 -6.151 18.082 n 188 NIL_188    0.000
2724 C_3832 34.057 -4.894 17.403 c3 188 NIL_188    0.000
2725 C_3835 35.697 -6.173 18.570 c3 188 NIL_188    0.000
2726 C_3833 35.442 -4.326 17.022 c3 188 NIL_188    0.000
2727 C_3837 33.112 -5.067 16.234 c 188 NIL_188    0.000
2728 C_3834 36.476 -4.974 17.969 c3 188 NIL_188    0.000
2729 O 33.161 -4.358 15.250 o 188 NIL_188    0.000
2730 N 37.631 -5.466 17.204 n 188 NIL_188    0.000
2731 C_3841 36.902 -4.014 19.074 c 188 NIL_188    0.000
2732 H 37.497 -6.333 16.705 hn 188 NIL_188    0.000
2733 O 36.198 -3.797 20.039 o 188 NIL_188    0.000
2734 H_38331 35.678 -4.623 15.999 hc 188 NIL_188    0.000
2735 H_38332 35.465 -3.236 17.086 hc 188 NIL_188    0.000
2736 H_38351 36.171 -7.108 18.261 h1 188 NIL_188    0.000
2737 H_38352 35.703 -6.103 19.661 h1 188 NIL_188    0.000
2738 H_3832 33.572 -4.223 18.116 h1 188 NIL_188    0.000
2739 C_3502 31.726 -0.645 1.314 c3 189 NIL_189    0.000
2740 C_2529 31.207 -1.396 0.080 c3 189 NIL_189    0.000
2741 C_2528 29.774 -1.890 0.324 c3 189 NIL_189    0.000
2742 H_25281 29.142 -1.043 0.600 h1 189 NIL_189    0.000
2743 H_25282 29.387 -2.333 -0.597 h1 189 NIL_189    0.000
2744 H_25291 31.223 -0.727 -0.782 hc 189 NIL_189    0.000
2745 H_25292 31.876 -2.210 -0.134 hc 189 NIL_189    0.000
2746 H_35021 31.741 -1.306 2.182 hc 189 NIL_189    0.000
2747 H_35022 31.080 0.206 1.538 hc 189 NIL_189    0.000
2748 H_35023 32.738 -0.276 1.139 hc 189 NIL_189    0.000
2749 C_3887 26.332 0.716 18.124 c3 190 NIL_190    0.000
2750 C_3886 27.176 -0.473 17.593 c3 190 NIL_190    0.000
2751 N 27.031 1.981 17.846 n 190 NIL_190    0.000
2752 C_3885 28.353 0.231 16.873 c3 190 NIL_190    0.000
2753 N 26.382 -1.254 16.632 n 190 NIL_190    0.000
2754 C_3892 27.658 -1.327 18.764 c 190 NIL_190    0.000
2755 C_3884 28.366 1.699 17.356 c3 190 NIL_190    0.000
2756 H 25.776 -0.722 16.025 hn 190 NIL_190    0.000
2757 O 28.021 -0.829 19.810 o 190 NIL_190    0.000
2758 C_3888 28.802 2.705 16.311 c 190 NIL_190    0.000
2759 O 29.536 2.388 15.418 o 190 NIL_190    0.000
2760 H_3884 29.051 1.795 18.202 h1 190 NIL_190    0.000
2761 H_38851 28.171 0.213 15.795 hc 190 NIL_190    0.000
2762 H_38852 29.305 -0.265 17.070 hc 190 NIL_190    0.000
2763 H_38871 25.361 0.731 17.623 h1 190 NIL_190    0.000
2764 H_38872 26.180 0.618 19.201 h1 190 NIL_190    0.000
2765 C_2292 39.613 1.389 15.312 c3 191 NIL_191    0.000
2766 C_243 38.779 0.950 14.116 c 191 NIL_191    0.000
2767 O 37.605 1.000 14.068 o 191 NIL_191    0.000
2768 H_22921 40.165 0.517 15.673 h1 191 NIL_191    0.000
2769 H_22922 40.320 2.146 14.964 h1 191 NIL_191    0.000
2770 C_2474 29.819 -4.260 0.838 c3 192 NIL_192    0.000
2771 C_2473 28.521 -4.675 0.059 c3 192 NIL_192    0.000
2772 C_2475 30.826 -4.226 -0.408 c3 192 NIL_192    0.000
2773 C_2478 30.144 -5.235 2.040 c 192 NIL_192    0.000
2774 N 29.706 -2.891 1.386 n 192 NIL_192    0.000
2775 C_2472 28.920 -5.083 -1.405 c3 192 NIL_192    0.000
2776 N 30.114 -4.357 -1.741 n 192 NIL_192    0.000
2777 O 30.565 -6.352 1.816 o 192 NIL_192    0.000
2778 C_2477 27.864 -5.022 -2.499 c 192 NIL_192    0.000
2779 O 26.694 -5.213 -2.240 o 192 NIL_192    0.000
2780 H_2472 29.222 -6.133 -1.369 h1 192 NIL_192    0.000
2781 H_24751 31.376 -3.325 -0.400 h1 192 NIL_192    0.000
2782 H_24752 31.525 -5.062 -0.324 h1 192 NIL_192    0.000
2783 H_24731 27.845 -3.818 0.018 hc 192 NIL_192    0.000
2784 H_24732 28.002 -5.494 0.564 hc 192 NIL_192    0.000
2785 C_2521 28.699 -1.585 -9.880 c3 193 NIL_193    0.000
2786 C_2522 29.826 -1.447 -10.878 c3 193 NIL_193    0.000
2787 C_3506 31.151 -1.041 -10.114 c3 193 NIL_193    0.000
2788 H_35061 31.410 -1.788 -9.347 hc 193 NIL_193    0.000
2789 H_35062 30.983 -0.093 -9.643 hc 193 NIL_193    0.000
2790 H_35063 31.982 -0.969 -10.814 hc 193 NIL_193    0.000
2791 H_25221 29.649 -0.795 -11.654 hc 193 NIL_193    0.000
2792 H_25222 29.944 -2.393 -11.441 hc 193 NIL_193    0.000
2793 H_25211 28.558 -0.607 -9.415 h1 193 NIL_193    0.000
2794 H_25212 27.790 -1.849 -10.426 h1 193 NIL_193    0.000
2795 C_111 31.568 -8.378 17.069 c3 194 NIL_194    0.000
2796 C_110 32.085 -6.986 17.484 c3 194 NIL_194    0.000
2797 N 30.157 -8.465 17.497 n3 194 NIL_194    0.000
2798 C_109 30.974 -6.504 18.458 c3 194 NIL_194    0.000
2799 N 32.254 -6.113 16.297 n 194 NIL_194    0.000
2800 C_137 33.392 -7.133 18.249 c 194 NIL_194    0.000
2801 C_108 30.068 -7.726 18.763 c3 194 NIL_194    0.000
2802 O 33.625 -8.106 18.934 o 194 NIL_194    0.000
2803 C_113 28.671 -7.289 19.198 c 194 NIL_194    0.000
2804 O 27.770 -8.015 19.566 o 194 NIL_194    0.000
2805 H_108 30.510 -8.313 19.572 h1 194 NIL_194    0.000
2806 H_1091 30.384 -5.728 17.961 hc 194 NIL_194    0.000
2807 H_1092 31.395 -6.083 19.375 hc 194 NIL_194    0.000
2808 H_1111 31.662 -8.526 15.990 h1 194 NIL_194    0.000
2809 H_1112 32.143 -9.142 17.598 h1 194 NIL_194    0.000
2810 C_2855 37.720 -1.307 6.943 c 195 NIL_195    0.000
2811 C_2849 38.635 -0.726 5.845 c3 195 NIL_195    0.000
2812 O 36.821 -2.057 6.620 o 195 NIL_195    0.000
2813 C_2848 38.795 -2.289 5.823 c3 195 NIL_195    0.000
2814 C_2850 37.891 -0.056 4.593 c3 195 NIL_195    0.000
2815 N 39.631 0.141 6.529 n 195 NIL_195    0.000
2816 C_2847 38.862 -1.358 3.289 c3 195 NIL_195    0.000
2817 N 38.351 -0.607 3.243 n 195 NIL_195    0.000
2818 C_2852 39.310 -2.789 2.443 c 195 NIL_195    0.000
2819 O 39.910 -3.747 2.866 o 195 NIL_195    0.000
2820 H_2847 40.345 -0.590 2.942 h1 195 NIL_195    0.000
2821 H_28501 36.821 -0.244 4.674 h1 195 NIL_195    0.000
2822 H_28502 38.057 1.026 4.611 h1 195 NIL_195    0.000
2823 H_28481 38.674 -2.784 5.145 hc 195 NIL_195    0.000
2824 H_28482 40.256 -2.282 5.731 hc 195 NIL_195    0.000
2825 C_3520 38.761 -5.636 -8.932 c3 196 NIL_196    0.000
2826 C_3007 37.409 -5.136 -9.469 c3 196 NIL_196    0.000
2827 C_3006 37.544 -3.708 -10.017 c3 196 NIL_196    0.000
2828 H_30061 38.247 -3.697 -10.853 h1 196 NIL_196    0.000
2829 H_30062 36.569 -3.363 -10.372 h1 196 NIL_196    0.000
2830 H_30071 37.060 -5.806 -10.256 hc 196 NIL_196    0.000
2831 H_30072 36.671 -5.149 -8.665 hc 196 NIL_196    0.000
2832 H_35201 39.225 -4.990 -8.233 hc 196 NIL_196    0.000
2833 H_35202 39.492 -5.707 -9.732 hc 196 NIL_196    0.000
2834 H_35203 38.641 -6.620 -8.475 hc 196 NIL_196    0.000
2835 C_262 41.607 -0.245 19.435 c 197 NIL_197    0.000
2836 C_257 41.263 1.165 18.979 c3 197 NIL_197    0.000
2837 O 42.688 -0.640 19.823 o 197 NIL_197    0.000
2838 N 41.888 1.629 17.737 n3 197 NIL_197    0.000
2839 C_258 39.759 1.238 18.625 c3 197 NIL_197    0.000
2840 C_260 41.037 2.728 17.231 c3 197 NIL_197    0.000
2841 C_259 39.578 2.379 17.599 c3 197 NIL_197    0.000
2842 N 38.800 1.945 16.414 n 197 NIL_197    0.000
2843 C_271 38.927 3.559 18.303 c 197 NIL_197    0.000
2844 O 39.569 4.349 18.965 o 197 NIL_197    0.000
2845 H_2601 41.155 2.855 16.153 h1 197 NIL_197    0.000
2846 H_2602 41.315 3.654 17.740 h1 197 NIL_197    0.000
2847 H_2581 39.454 0.297 18.163 hc 197 NIL_197    0.000
2848 H_2582 39.146 1.399 19.515 hc 197 NIL_197    0.000
2849 H_257 41.485 1.862 19.790 h1 197 NIL_197    0.000
2850 N 39.715 -0.997 -3.923 n 198 NIL_198    0.000
2851 C_2946 38.334 -1.301 -4.364 c3 198 NIL_198    0.000
2852 C_2945 38.312 -2.622 -5.194 c3 198 NIL_198    0.000
2853 C_2947 37.806 -0.371 -5.525 c3 198 NIL_198    0.000
2854 C_2958 37.428 -1.444 -3.078 c 198 NIL_198    0.000
2855 C_2944 38.722 -2.273 -6.660 c3 198 NIL_198    0.000
2856 N 37.850 -1.060 -6.871 n 198 NIL_198    0.000
2857 O 36.300 -1.884 -3.175 o 198 NIL_198    0.000
2858 C_2949 38.319 -3.259 -7.739 c 198 NIL_198    0.000
2859 O 38.140 -4.396 -7.429 o 198 NIL_198    0.000
2860 H_2944 39.811 -2.191 -6.715 h1 198 NIL_198    0.000
2861 H_29471 36.781 -0.238 -5.518 h1 198 NIL_198    0.000
2862 H_29472 37.946 1.062 -4.905 h1 198 NIL_198    0.000
2863 H_29451 37.289 -3.005 -5.206 hc 198 NIL_198    0.000
2864 H_29452 38.962 -3.384 -4.758 hc 198 NIL_198    0.000
2865 C_1480 27.667 5.219 5.729 c3 199 NIL_199    0.000
2866 C_1481 28.026 5.083 4.243 c3 199 NIL_199    0.000
2867 C_3528 28.673 3.720 3.972 c3 199 NIL_199    0.000
2868 H_35281 27.985 2.938 4.208 hc 199 NIL_199    0.000
2869 H_35282 29.462 3.911 4.088 hc 199 NIL_199    0.000
2870 H_35283 28.880 3.600 2.934 hc 199 NIL_199    0.000
2871 H_14811 28.627 5.754 4.243 hc 199 NIL_199    0.000
2872 H_14812 27.127 5.185 3.633 hc 199 NIL_199    0.000
2873 H_14801 27.238 6.207 5.912 h1 199 NIL_199    0.000
2874 H_14802 26.924 4.460 5.989 h1 199 NIL_199    0.000
2875 C_2948 38.008 -0.458 -8.233 c 200 NIL_200    0.000
2876 C_2937 38.169 -1.405 -9.481 c3 200 NIL_200    0.000
2877 O 37.688 0.701 -8.378 o 200 NIL_200    0.000
2878 C_2936 39.523 -1.269 -10.259 c3 200 NIL_200    0.000
2879 C_2938 37.171 -1.118 -10.696 c3 200 NIL_200    0.000
2880 N 38.026 -2.791 -8.986 n 200 NIL_200    0.000
2881 C_2935 39.247 -0.877 -11.758 c3 200 NIL_200    0.000
2882 N 37.859 -1.125 -12.043 n 200 NIL_200    0.000
2883 C_2939 40.136 -1.480 -12.833 c 200 NIL_200    0.000
2884 O 41.255 -1.850 -12.560 o 200 NIL_200    0.000
2885 H_2935 39.381 0.205 -11.849 h1 200 NIL_200    0.000
2886 H_29381 36.370 -1.861 -10.702 h1 200 NIL_200    0.000
2887 H_29382 36.725 -0.130 -10.561 h1 200 NIL_200    0.000
2888 H_29361 40.042 -2.230 -10.231 hc 200 NIL_200    0.000
2889 H_29362 40.167 -0.526 -9.785 hc 200 NIL_200    0.000
2890 C_1297 33.558 5.058 -17.895 c 201 NIL_201    0.000
2891 C_1292 32.331 5.546 -16.958 c3 201 NIL_201    0.000
2892 O 33.347 4.240 -18.768 o 201 NIL_201    0.000
2893 NH 34.876 5.551 -17.734 n 201 NIL_201    0.000
2894 N 30.871 5.007 -17.090 n 201 NIL_201    0.000
2895 C_1293 32.698 5.302 -15.438 c3 201 NIL_201    0.000
2896 C_3668 36.222 5.351 -18.534 c3 201 NIL_201    0.000
2897 C_1295 30.543 4.432 -15.728 c3 201 NIL_201    0.000
2898 C_1294 31.412 5.066 -14.573 c3 201 NIL_201    0.000
2899 C_3656 37.014 3.940 -18.381 c2 201 NIL_201    0.000
2900 N 30.848 6.350 -14.098 n 201 NIL_201    0.000
2901 C_1306 31.692 4.158 -13.318 c 201 NIL_201    0.000
2902 C_3654 38.049 3.576 -19.159 c2 201 NIL_201    0.000
2903 C_3658 36.733 2.986 -17.478 c2 201 NIL_201    0.000
2904 C_3544 30.940 7.382 -15.127 c3 201 NIL_201    0.000
2905 O 32.379 3.163 -13.430 o 201 NIL_201    0.000
2906 C_3652 38.713 2.399 -19.064 c2 201 NIL_201    0.000
2907 C_3660 37.397 1.809 -17.376 c2 201 NIL_201    0.000
2908 C_3546 32.388 7.831 -15.361 c3 201 NIL_201    0.000
2909 C_3574 38.422 1.446 -18.164 c2 201 NIL_201    0.000
2910 C_3548 32.441 8.849 -16.507 c3 201 NIL_201    0.000
2911 C_2831 39.081 0.114 -18.090 c 201 NIL_201    0.000
2912 O 39.872 -0.249 -18.937 o 201 NIL_201    0.000
2913 H_35481 31.860 9.737 -16.251 hc 201 NIL_201    0.000
2914 H_35482 32.028 8.412 -17.419 hc 201 NIL_201    0.000
2915 H_35483 33.472 9.148 -16.700 hc 201 NIL_201    0.000
2916 H_35461 32.972 7.070 -15.684 hc 201 NIL_201    0.000
2917 H_35462 32.789 8.275 -14.447 hc 201 NIL_201    0.000
2918 H_3660 37.064 1.110 -16.630 ha 201 NIL_201    0.000
2919 H_3652 39.521 2.209 -19.766 ha 201 NIL_201    0.000
2920 H_35441 30.340 8.242 -14.818 h1 201 NIL_201    0.000
2921 H_35442 30.528 6.983 -16.058 h1 201 NIL_201    0.000
2922 H_3658 35.911 3.166 -16.791 ha 201 NIL_201    0.000
2923 H_3654 38.369 4.274 -19.928 ha 201 NIL_201    0.000
2924 H_12951 30.758 3.366 -15.752 h1 201 NIL_201    0.000
2925 H_12952 29.480 4.580 -15.518 h1 201 NIL_201    0.000
2926 H_36681 36.901 6.152 -18.234 h1 201 NIL_201    0.000
2927 H_36682 35.994 5.497 -19.594 h1 201 NIL_201    0.000
2928 H_12931 33.322 4.412 -15.376 hc 201 NIL_201    0.000
2929 H_12932 33.317 6.039 -14.971 hc 201 NIL_201    0.000
2930 H_1292 32.275 6.628 -17.110 h1 201 NIL_201    0.000
2931 HH 34.979 6.216 -16.982 hn 201 NIL_201    0.000
2932 C_1343 30.054 4.870 11.869 c3 202 NIL_202    0.000
2933 NH 29.199 5.202 13.019 n 202 NIL_202    0.000
2934 C_1335 29.631 5.481 10.406 c3 202 NIL_202    0.000
2935 C_1323 29.806 4.736 8.950 c3 202 NIL_202    0.000
2936 C_1319 28.653 5.020 7.969 c 202 NIL_202    0.000
2937 NH 31.069 4.875 8.171 n 202 NIL_202    0.000
2938 O 27.539 5.219 8.408 o 202 NIL_202    0.000
2939 H_1323 29.709 3.666 9.150 h1 202 NIL_202    0.000
2940 H_13351 28.556 5.655 10.490 hc 202 NIL_202    0.000
2941 H_13352 30.069 6.479 10.325 hc 202 NIL_202    0.000
2942 H_13431 30.049 3.781 11.785 h1 202 NIL_202    0.000
2943 H_13432 31.078 5.177 12.099 h1 202 NIL_202    0.000
2944 HH 31.910 4.861 8.729 hn 202 NIL_202    0.000
2945 HH 28.560 5.979 12.943 hn 202 NIL_202    0.000
2946 N 29.840 -3.874 -11.955 n 203 NIL_203    0.000
2947 C_2355 28.907 -4.895 -11.644 c3 203 NIL_203    0.000
2948 C_2358 30.469 -3.581 -10.544 c3 203 NIL_203    0.000
2949 C_2356 28.352 -4.608 -10.202 c3 203 NIL_203    0.000
2950 C_2360 27.924 -5.153 -12.778 c 203 NIL_203    0.000
2951 C_2357 29.448 -3.846 -9.381 c3 203 NIL_203    0.000
2952 O 26.868 -5.713 -12.568 o 203 NIL_203    0.000
2953 N 28.919 -2.578 -8.829 n 203 NIL_203    0.000
2954 C_2369 30.011 -4.704 -8.179 c 203 NIL_203    0.000
2955 O 30.756 -5.636 -8.399 o 203 NIL_203    0.000
2956 H_23561 27.465 -3.973 -10.273 hc 203 NIL_203    0.000
2957 H_23562 28.069 -5.537 -9.702 hc 203 NIL_203    0.000
2958 H_23581 30.835 -2.530 -10.472 h1 203 NIL_203    0.000
2959 H_23582 31.353 -4.105 -10.475 h1 203 NIL_203    0.000
2960 H_2355 29.504 -5.809 -11.583 h1 203 NIL_203    0.000
2961 O 36.826 1.705 15.385 o 204 NIL_204    0.000
2962 C_3865 37.454 2.070 16.307 c 204 NIL_204    0.000
2963 C_3861 36.740 2.767 17.447 c3 204 NIL_204    0.000
2964 N 37.599 3.720 18.120 n 204 NIL_204    0.000
2965 C_3862 35.458 3.535 17.053 c3 204 NIL_204    0.000
2966 C_3864 36.784 4.828 18.632 c3 204 NIL_204    0.000
2967 C_3863 35.404 4.814 17.927 c3 204 NIL_204    0.000
2968 N 35.294 6.012 17.083 n 204 NIL_204    0.000
2969 C_3869 34.290 4.733 18.969 c 204 NIL_204    0.000
2970 H 36.132 6.276 16.588 hn 204 NIL_204    0.000
2971 O 34.366 3.987 19.923 o 204 NIL_204    0.000
2972 H_38641 37.292 5.776 18.438 h1 204 NIL_204    0.000
2973 H_38642 36.650 4.703 19.710 h1 204 NIL_204    0.000
2974 H_38621 35.520 3.821 16.001 hc 204 NIL_204    0.000
2975 H_38622 34.568 2.917 17.194 hc 204 NIL_204    0.000
2976 H_3861 36.485 1.993 18.176 h1 204 NIL_204    0.000
2977 C_2376 30.341 -5.172 9.084 c3 205 NIL_205    0.000
2978 C_2372 29.035 -4.900 8.315 c 205 NIL_205    0.000
2979 NH 31.447 -4.820 8.150 n 205 NIL_205    0.000
2980 C_2388 30.546 -4.540 10.586 c3 205 NIL_205    0.000
2981 O 27.991 -4.801 8.927 o 205 NIL_205    0.000
2982 C_2396 29.936 -5.053 12.023 c3 205 NIL_205    0.000
2983 NH 30.745 -5.934 12.882 n 205 NIL_205    0.000
2984 H_23961 29.734 -4.161 12.620 h1 205 NIL_205    0.000
2985 H_23962 28.975 -5.541 11.843 h1 205 NIL_205    0.000
2986 H_23881 30.241 -3.495 10.497 hc 205 NIL_205    0.000
2987 H_23882 31.626 -4.496 10.741 hc 205 NIL_205    0.000
2988 H_2376 30.379 -6.260 9.188 h1 205 NIL_205    0.000
2989 HH 30.735 -6.923 12.679 hn 205 NIL_205    0.000
2990 HH 32.354 -4.778 8.591 hn 205 NIL_205    0.000
2991 N 30.114 4.692 2.893 n 206 NIL_206    0.000
2992 C_1312 29.934 5.938 3.408 c3 206 NIL_206    0.000
2993 C_1315 30.684 4.112 4.983 c3 206 NIL_206    0.000
2994 C_1313 30.323 6.232 4.913 c3 206 NIL_206    0.000
2995 C_1317 30.616 6.696 2.330 c 206 NIL_206    0.000
2996 C_1314 30.139 5.009 5.802 c3 206 NIL_206    0.000
2997 O 31.073 7.803 2.530 o 206 NIL_206    0.000
2998 N 28.829 5.043 6.599 n 206 NIL_206    0.000
2999 C_1320 31.249 4.834 6.799 c 206 NIL_206    0.000
3000 O 32.380 4.742 6.369 o 206 NIL_206    0.000
3001 H_13131 31.387 6.464 4.928 hc 206 NIL_206    0.000
3002 H_13132 29.782 7.094 5.310 hc 206 NIL_206    0.000
3003 H_13151 31.054 3.299 4.651 h1 206 NIL_206    0.000
3004 H_13152 28.496 2.447 5.223 h1 206 NIL_206    0.000
3005 H_1312 28.886 6.305 3.057 h1 206 NIL_206    0.000
3006 N 31.225 4.517 -12.060 n 207 NIL_207    0.000
3007 C_1302 30.202 5.507 -11.845 c3 207 NIL_207    0.000
3008 C_1305 31.470 3.896 -10.705 c3 207 NIL_207    0.000
3009 C_1303 30.183 5.883 -10.315 c3 207 NIL_207    0.000
3010 C_1307 30.297 6.626 -12.876 c 207 NIL_207    0.000
3011 C_1304 31.022 4.841 -9.498 c3 207 NIL_207    0.000
3012 O 29.897 7.745 -12.628 o 207 NIL_207    0.000
3013 N 32.194 5.520 -8.914 n 207 NIL_207    0.000
3014 C_1316 30.271 4.136 -8.305 c 207 NIL_207    0.000
3015 O 29.564 3.170 -8.507 o 207 NIL_207    0.000
3016 H_13031 30.620 6.875 -10.175 hc 207 NIL_207    0.000
3017 H_13032 29.154 5.914 -9.951 hc 207 NIL_207    0.000
3018 H_13051 32.305 3.755 -10.765 h1 207 NIL_207    0.000
3019 H_13052 30.901 2.966 -10.658 h1 207 NIL_207    0.000
3020 H_1302 29.253 5.010 -12.067 h1 207 NIL_207    0.000
3021 N 29.972 -4.829 3.363 n 208 NIL_208    0.000
3022 C_2365 29.403 -3.569 3.762 c3 208 NIL_208    0.000
3023 C_2368 30.214 -5.557 4.679 c3 208 NIL_208    0.000
3024 C_2366 29.998 -3.249 5.177 c3 208 NIL_208    0.000
3025 C_2370 29.530 -2.507 2.684 c 208 NIL_208    0.000
3026 C_2367 30.141 -4.593 5.962 c3 208 NIL_208    0.000
3027 O 29.483 -1.327 2.965 o 208 NIL_208    0.000
3028 N 29.014 -4.776 6.934 n 208 NIL_208    0.000
3029 C_2373 31.437 -4.606 6.787 c 208 NIL_208    0.000
3030 O 32.494 -4.396 6.227 o 208 NIL_208    0.000
3031 H_23661 30.982 -2.799 5.052 hc 208 NIL_208    0.000
3032 H_23662 29.491 -2.521 5.765 hc 208 NIL_208    0.000
3033 H_23681 31.201 -6.022 4.636 h1 208 NIL_208    0.000
3034 H_23682 29.468 -6.349 4.784 h1 208 NIL_208    0.000
3035 H_2365 28.329 -3.741 3.877 h1 208 NIL_208    0.000
3036 C_3514 40.580 -1.582 4.541 c3 209 NIL_209    0.000
3037 C_3013 40.358 0.130 4.248 c3 209 NIL_209    0.000
3038 C_3012 40.635 0.595 5.571 c3 209 NIL_209    0.000
3039 H_30121 41.618 0.254 5.906 h1 209 NIL_209    0.000
3040 H_30122 40.630 1.688 5.541 h1 209 NIL_209    0.000
3041 H_30131 41.156 0.342 3.485 hc 209 NIL_209    0.000
3042 H_30132 39.434 0.466 3.790 hc 209 NIL_209    0.000
3043 H_35141 41.194 -1.923 4.581 hc 209 NIL_209    0.000
3044 H_35142 40.468 -2.119 3.198 hc 209 NIL_209    0.000
3045 H_35143 40.035 -1.440 4.302 hc 209 NIL_209    0.000
3046 C_1415 30.119 3.931 -5.656 c3 210 NIL_210    0.000
3047 C_1414 30.475 4.872 -4.413 c3 210 NIL_210    0.000
3048 N 30.546 4.551 -6.983 n 210 NIL_210    0.000
3049 C_1413 31.546 5.726 -5.159 c3 210 NIL_210    0.000
3050 N 29.324 5.713 -3.985 n 210 NIL_210    0.000
3051 C_1426 31.124 4.232 -3.127 c 210 NIL_210    0.000
3052 C_1412 31.168 5.797 -6.676 c3 210 NIL_210    0.000
3053 O 32.183 3.642 -3.209 o 210 NIL_210    0.000
3054 C_1417 32.317 6.016 -7.649 c 210 NIL_210    0.000
3055 O 33.339 6.573 -7.305 o 210 NIL_210    0.000
3056 H_1412 30.468 6.619 -6.835 h1 210 NIL_210    0.000
3057 H_14131 32.509 5.218 -5.078 hc 210 NIL_210    0.000
3058 H_14132 31.648 6.717 -4.714 hc 210 NIL_210    0.000
3059 H_14151 30.699 3.012 -5.577 h1 210 NIL_210    0.000
3060 H_14152 29.271 3.549 -5.539 h1 210 NIL_210    0.000
3061 C_2285 31.564 -6.603 15.088 c3 211 NIL_211    0.000
3062 C_766 31.188 -5.516 14.094 c 211 NIL_211    0.000
3063 O 31.217 -4.338 14.381 o 211 NIL_211    0.000
3064 H_22851 30.645 -7.117 15.378 h1 211 NIL_211    0.000
3065 H_22852 32.213 -7.310 14.562 h1 211 NIL_211    0.000
3066 N 30.547 4.416 -1.877 n 212 NIL_212    0.000
3067 C_1422 29.158 4.749 -1.694 c3 212 NIL_212    0.000
3068 C_1425 31.088 4.147 -0.490 c3 212 NIL_212    0.000
3069 C_1423 28.911 5.098 -0.174 c3 212 NIL_212    0.000
3070 C_1427 28.704 5.734 -2.765 c 212 NIL_212    0.000
3071 C_1424 30.204 4.812 0.664 c3 212 NIL_212    0.000
3072 O 27.818 6.537 -2.550 o 212 NIL_212    0.000
3073 C_1428 30.033 3.933 1.933 c 212 NIL_212    0.000
3074 N 30.768 6.103 1.108 n 212 NIL_212    0.000
3075 O 29.920 2.717 1.856 o 212 NIL_212    0.000
3076 H_14231 28.638 6.152 -0.078 hc 212 NIL_212    0.000
3077 H_14232 28.079 4.502 0.209 hc 212 NIL_212    0.000
3078 H_14251 32.116 4.511 -0.425 h1 212 NIL_212    0.000
3079 H_14252 31.091 3.064 -0.343 h1 212 NIL_212    0.000
3080 H_1422 28.600 3.835 -1.908 h1 212 NIL_212    0.000
3081 C_188 30.577 -10.651 18.545 c3 213 NIL_213    0.000
3082 C_112 29.682 -9.853 17.586 c3 213 NIL_213    0.000
3083 H_1121 29.710 -10.305 16.591 h1 213 NIL_213    0.000
3084 H_1122 28.648 -9.865 17.945 h1 213 NIL_213    0.000
3085 H_1881 30.205 -11.672 18.654 hc 213 NIL_213    0.000
3086 H_1882 30.565 -10.182 19.530 hc 213 NIL_213    0.000
3087 H_1883 31.612 -10.688 18.190 hc 213 NIL_213    0.000
3088 N 38.142 -3.472 18.984 n 214 NIL_214    0.000
3089 C_133 39.006 -3.549 17.819 c3 214 NIL_214    0.000
3090 C_136 38.862 -2.764 20.060 c3 214 NIL_214    0.000
3091 C_134 40.447 -3.322 18.318 c3 214 NIL_214    0.000
3092 C_138 38.814 -4.830 17.048 c 214 NIL_214    0.000
3093 C.fc 40.311 -2.454 19.586 c3 214 NIL_214    0.000
3094 O 39.689 -5.295 16.346 o 214 NIL_214    0.000
3095 NH 40.489 -1.017 19.311 n 214 NIL_214    0.000
3096 H.fc 41.037 -2.760 20.343 h1 214 NIL_214    0.000
3097 H_1341 41.065 -2.837 17.562 hc 214 NIL_214    0.000
3098 H_1342 40.895 -4.282 18.582 hc 214 NIL_214    0.000
3099 H_1361 38.892 -3.413 20.940 h1 214 NIL_214    0.000
3100 H_1362 38.336 -1.839 20.306 h1 214 NIL_214    0.000
3101 H_133 38.728 -2.732 17.148 h1 214 NIL_214    0.000
3102 HH 39.659 -0.551 18.977 hn 214 NIL_214    0.000
3103 C_737 27.725 -3.666 19.716 c3 215 NIL_215    0.000
3104 C.fb 27.376 -5.079 19.169 c3 215 NIL_215    0.000
3105 N 27.586 -2.675 18.630 n 215 NIL_215    0.000
3106 C_735 26.731 -4.753 17.806 c3 215 NIL_215    0.000
3107 NH 28.569 -5.937 19.043 n 215 NIL_215    0.000
3108 C_734 27.306 -3.382 17.396 c3 215 NIL_215    0.000
3109 C_739 26.422 -2.594 16.462 c 215 NIL_215    0.000
3110 O 25.748 -3.134 15.608 o 215 NIL_215    0.000
3111 H_734 28.260 -3.530 16.880 h1 215 NIL_215    0.000
3112 H_7351 26.930 -5.523 17.057 hc 215 NIL_215    0.000
3113 H_7352 25.649 -4.662 17.936 hc 215 NIL_215    0.000
3114 H.fb 26.654 -5.576 19.821 h1 215 NIL_215    0.000
3115 H_7371 27.030 -3.402 20.516 h1 215 NIL_215    0.000
3116 H_7372 28.748 -3.651 20.100 h1 215 NIL_215    0.000
3117 HH 29.401 -5.460 18.732 hn 215 NIL_215    0.000
3118 C_2526 27.250 -4.768 -4.857 c3 216 NIL_216    0.000
3119 C_2527 26.927 -3.326 -5.312 c3 216 NIL_216    0.000
3120 C_3504 25.984 -3.355 -6.531 c3 216 NIL_216    0.000
3121 H_35041 25.802 -2.336 -6.881 hc 216 NIL_216    0.000
3122 H_35042 25.033 -3.800 -6.239 hc 216 NIL_216    0.000
3123 H_35043 26.406 -3.937 -7.354 hc 216 NIL_216    0.000
3124 H_25271 27.774 -2.804 -5.598 hc 216 NIL_216    0.000
3125 H_25272 26.536 -2.751 -4.529 hc 216 NIL_216    0.000
3126 H_25261 26.331 -5.220 -4.480 h1 216 NIL_216    0.000
3127 H_25262 27.622 -5.367 -5.695 h1 216 NIL_216    0.000
3128 C_2858 38.735 0.011 8.929 c3 217 NIL_217    0.000
3129 C_2854 39.753 0.467 7.866 c 217 NIL_217    0.000
3130 NH 37.913 -1.055 8.291 n 217 NIL_217    0.000
3131 C_2870 39.400 -0.202 10.421 c3 217 NIL_217    0.000
3132 O 40.705 1.137 8.210 o 217 NIL_217    0.000
3133 C_2878 38.644 -0.026 11.868 c3 217 NIL_217    0.000
3134 NH 39.421 0.464 13.022 n 217 NIL_217    0.000
3135 H_28781 37.830 0.690 11.720 h1 217 NIL_217    0.000
3136 H_28782 38.188 -0.980 12.143 h1 217 NIL_217    0.000
3137 H_28701 40.210 0.529 10.455 hc 217 NIL_217    0.000
3138 H_28702 39.896 -1.174 10.425 hc 217 NIL_217    0.000
3139 H_2858 38.067 0.871 9.021 h1 217 NIL_217    0.000
3140 HH 40.427 0.382 13.010 hn 217 NIL_217    0.000
3141 HH 37.304 -1.548 8.926 hn 217 NIL_217    0.000
3142 C_1478 31.455 6.781 0.014 c3 218 NIL_218    0.000
3143 C_1479 30.462 7.362 -1.005 c3 218 NIL_218    0.000
3144 C_3530 29.576 8.422 -0.336 c3 218 NIL_218    0.000
3145 H_35301 29.011 7.978 0.487 hc 218 NIL_218    0.000
3146 H_35302 28.871 8.837 -1.059 hc 218 NIL_218    0.000
3147 H_35303 30.194 9.232 0.057 hc 218 NIL_218    0.000
3148 H_14791 29.837 6.565 -1.409 hc 218 NIL_218    0.000
3149 H_14792 31.008 7.811 -1.836 hc 218 NIL_218    0.000
3150 H_14781 32.101 6.058 -0.486 h1 218 NIL_218    0.000
3151 H_14782 32.072 7.583 0.425 h1 218 NIL_218    0.000
3152 C_3010 38.886 -3.566 0.349 c3 219 NIL_219    0.000
3153 C_3011 40.027 -3.516 -0.679 c3 219 NIL_219    0.000
3154 C_3516 41.384 -3.637 0.028 c3 219 NIL_219    0.000
3155 H_35161 41.518 -2.816 0.736 hc 219 NIL_219    0.000
3156 H_35162 42.195 -3.601 -0.702 hc 219 NIL_219    0.000
3157 H_35163 41.444 -4.581 0.574 hc 219 NIL_219    0.000
3158 H_30111 39.984 -2.579 -1.237 hc 219 NIL_219    0.000
3159 H_30112 39.912 -4.335 -1.392 hc 219 NIL_219    0.000
3160 H_30101 37.926 -3.525 -0.166 h1 219 NIL_219    0.000
3161 H_30102 38.947 -4.508 0.900 h1 219 NIL_219    0.000
3162 C_1477 27.818 6.102 -5.933 c3 220 NIL_220    0.000
3163 C_1476 28.922 6.661 -5.024 c3 220 NIL_220    0.000
3164 C_3532 28.263 4.809 -6.628 c3 220 NIL_220    0.000
3165 H_35321 29.107 4.990 -7.205 hc 220 NIL_220    0.000
3166 H_35322 27.477 4.448 -7.293 hc 220 NIL_220    0.000
3167 H_35323 28.241 4.167 -5.976 hc 220 NIL_220    0.000
3168 H_14761 29.794 6.912 -5.627 h1 220 NIL_220    0.000
3169 H_14762 28.553 7.572 -4.543 h1 220 NIL_220    0.000
3170 H_14771 27.556 6.852 -6.685 hc 220 NIL_220    0.000
3171 H_14772 26.931 5.895 -5.330 hc 220 NIL_220    0.000
3172 C_1472 33.880 4.102 -9.999 c3 221 NIL_221    0.000
3173 C_1471 33.317 5.521 -9.844 c3 221 NIL_221    0.000
3174 C_3542 34.925 4.050 -11.120 c3 221 NIL_221    0.000
3175 H_35421 35.276 3.025 -11.256 hc 221 NIL_221    0.000
3176 H_35422 35.780 4.684 -10.873 hc 221 NIL_221    0.000
3177 H_35423 34.492 4.399 -12.060 hc 221 NIL_221    0.000
3178 H_14711 34.094 6.193 -9.473 h1 221 NIL_221    0.000
3179 H_14712 32.964 5.882 -10.813 h1 221 NIL_221    0.000
3180 H_14721 33.285 3.316 -10.082 hc 221 NIL_221    0.000
3181 H_14722 34.319 3.773 -9.058 hc 221 NIL_221    0.000
3182 C_660 43.290 2.037 17.915 c3 222 NIL_222    0.000
3183 C_662 43.370 3.251 18.853 c3 222 NIL_222    0.000
3184 H_6621 42.785 4.081 18.452 hc 222 NIL_222    0.000
3185 H_6622 44.402 3.587 18.958 hc 222 NIL_222    0.000
3186 H_6623 42.985 2.992 19.840 hc 222 NIL_222    0.000
3187 H_6601 43.714 2.305 16.943 h1 222 NIL_222    0.000
3188 H_6602 43.866 1.205 18.332 h1 222 NIL_222    0.000
3189 C_3009 40.712 -0.037 -5.971 c3 223 NIL_223    0.000
3190 C_3008 40.685 -1.217 -4.990 c3 223 NIL_223    0.000
3191 C_3518 39.367 0.166 -6.623 c3 223 NIL_223    0.000
3192 H_35181 39.027 -0.055 -6.444 hc 223 NIL_223    0.000
3193 H_35182 39.359 -0.687 -7.237 hc 223 NIL_223    0.000
3194 H_35183 39.344 0.985 -7.315 hc 223 NIL_223    0.000
3195 H_30081 40.424 -2.134 -5.519 h1 223 NIL_223    0.000
3196 H_30082 41.674 -1.344 -4.541 h1 223 NIL_223    0.000
3197 H_30091 41.459 -0.219 -6.747 hc 223 NIL_223    0.000
3198 H_30092 40.992 0.876 -5.442 hc 223 NIL_223    0.000
3199 C_2299 28.368 4.918 15.307 c3 224 NIL_224    0.000
3200 C_309 29.272 4.489 14.169 c 224 NIL_224    0.000
3201 O 30.044 3.571 14.253 o 224 NIL_224    0.000
3202 H_22991 28.735 5.812 15.584 h1 224 NIL_224    0.000
3203 H_22992 27.378 5.037 14.883 h1 224 NIL_224    0.000
3204 C_769 28.271 7.047 16.534 c3 225 NIL_225    0.000
3205 C_770 27.764 7.154 15.079 c3 225 NIL_225    0.000
3206 H_7701 27.299 6.269 14.759 hc 225 NIL_225    0.000
3207 H_7702 28.594 7.372 14.403 hc 225 NIL_225    0.000
3208 H_7703 27.025 7.948 15.002 hc 225 NIL_225    0.000
3209 H_7691 29.013 6.246 16.696 h1 225 NIL_225    0.000
3210 H_7692 28.785 7.957 16.814 h1 225 NIL_225    0.000
3211 C_3691 35.634 16.782 -19.171 c2 226 NIL_226    0.000
3212 C_3689 36.321 17.946 -19.078 c2 226 NIL_226    0.000
3213 C_3693 35.821 15.716 -18.372 c2 226 NIL_226    0.000
3214 C_3585 37.274 18.178 -18.166 c2 226 NIL_226    0.000
3215 C_3695 36.773 15.958 -17.458 c2 226 NIL_226    0.000
3216 C_3705 34.997 14.326 -18.511 c3 226 NIL_226    0.000
3217 C_1296 38.105 19.409 -18.090 c 226 NIL_226    0.000
3218 C_3697 37.460 17.120 -17.360 c2 226 NIL_226    0.000
3219 NH 35.540 13.102 -17.681 n 226 NIL_226    0.000
3220 O 38.035 20.284 -18.930 o 226 NIL_226    0.000
3221 C_2350 36.584 12.168 -17.888 c 226 NIL_226    0.000
3222 C_2345 36.865 10.934 -16.891 c3 226 NIL_226    0.000
3223 O 37.306 12.301 -18.855 o 226 NIL_226    0.000
3224 N 37.950 9.853 -17.016 n 226 NIL_226    0.000
3225 C_2346 37.062 11.499 -15.396 c3 226 NIL_226    0.000
3226 C_2348 38.508 9.683 -15.617 c3 226 NIL_226    0.000
3227 C_2347 37.625 10.363 -14.493 c3 226 NIL_226    0.000
3228 N 36.499 9.516 -14.050 n 226 NIL_226    0.000
3229 C_2359 38.421 10.869 -13.228 c 226 NIL_226    0.000
3230 C_3508 35.609 9.219 -15.168 c3 226 NIL_226    0.000
3231 O 39.328 11.664 -13.366 o 226 NIL_226    0.000
3232 C_3510 34.887 10.478 -15.675 c3 226 NIL_226    0.000
3233 C_3512 34.062 11.125 -14.576 c3 226 NIL_226    0.000
3234 H_35121 33.326 10.416 -14.193 hc 226 NIL_226    0.000
3235 H_35122 33.537 12.002 -14.962 hc 226 NIL_226    0.000
3236 H_35123 34.708 11.440 -13.754 hc 226 NIL_226    0.000
3237 H_35101 34.255 10.214 -16.528 hc 226 NIL_226    0.000
3238 H_35102 35.582 11.217 -16.017 hc 226 NIL_226    0.000
3239 H_35081 34.866 8.487 -14.844 h1 226 NIL_226    0.000
3240 H_35082 36.202 8.782 -15.975 h1 226 NIL_226    0.000
3241 H_23481 39.467 10.152 -15.570 h1 226 NIL_226    0.000
3242 H_23482 38.622 8.618 -15.400 h1 226 NIL_226    0.000
3243 H_23461 37.769 12.312 -15.446 hc 226 NIL_226    0.000
3244 H_23462 36.120 11.901 -14.982 hc 226 NIL_226    0.000
3245 H_2345 35.903 10.372 -16.908 h1 226 NIL_226    0.000
3246 H_3697 38.210 17.186 -16.609 ha 226 NIL_226    0.000
3247 H_37051 33.964 14.503 -18.202 h1 226 NIL_226    0.000
3248 H_37052 34.981 14.031 -19.564 h1 226 NIL_226    0.000
3249 H_3695 37.016 15.164 -16.756 ha 226 NIL_226    0.000
3250 H_3689 36.095 18.733 -19.795 ha 226 NIL_226    0.000
3251 H_3691 34.884 16.697 -19.952 ha 226 NIL_226    0.000
3252 HH 34.995 12.933 -16.848 hn 226 NIL_226    0.000
3253 C_3522 48.727 12.102 -15.152 c3 227 NIL_227    0.000
3254 N 47.885 12.649 -14.095 n 227 NIL_227    0.000
3255 C_3524 50.115 11.758 -14.604 c3 227 NIL_227    0.000
3256 C_2829 46.518 12.943 -14.579 c3 227 NIL_227    0.000
3257 C_3526 50.792 13.037 -14.091 c3 227 NIL_227    0.000
3258 C_2828 46.013 11.791 -15.505 c3 227 NIL_227    0.000
3259 C_2830 46.497 14.080 -15.683 c3 227 NIL_227    0.000
3260 C_2841 45.583 13.138 -13.328 c 227 NIL_227    0.000
3261 C_2827 46.480 12.022 -16.991 c3 227 NIL_227    0.000
3262 N 46.753 13.556 -17.087 n 227 NIL_227    0.000
3263 O 44.380 13.204 -13.477 o 227 NIL_227    0.000
3264 C_2832 45.489 11.207 -17.970 c 227 NIL_227    0.000
3265 O 45.018 11.762 -18.942 o 227 NIL_227    0.000
3266 NH 45.158 9.852 -17.731 n 227 NIL_227    0.000
3267 C_3643 44.334 8.786 -18.544 c3 227 NIL_227    0.000
3268 C_3631 42.716 8.813 -18.382 c2 227 NIL_227    0.000
3269 C_3629 41.868 8.249 -19.259 c2 227 NIL_227    0.000
3270 C_3633 42.049 9.396 -17.373 c2 227 NIL_227    0.000
3271 C_3627 40.516 8.271 -19.151 c2 227 NIL_227    0.000
3272 C_3635 40.697 9.422 -17.263 c2 227 NIL_227    0.000
3273 C_2378 39.856 8.864 -18.147 c2 227 NIL_227    0.000
3274 C_2349 38.371 8.978 -18.067 c 227 NIL_227    0.000
3275 O 37.659 8.565 -18.958 o 227 NIL_227    0.000
3276 H_3635 40.301 9.935 -16.446 ha 227 NIL_227    0.000
3277 H_3627 39.934 7.798 -19.937 ha 227 NIL_227    0.000
3278 H_3633 42.630 9.892 -16.600 ha 227 NIL_227    0.000
3279 H_3629 42.297 7.748 -20.123 ha 227 NIL_227    0.000
3280 H_36431 44.698 7.797 -18.256 h1 227 NIL_227    0.000
3281 H_36432 44.573 8.927 -19.601 h1 227 NIL_227    0.000
3282 H_2827 47.452 11.536 -17.104 h1 227 NIL_227    0.000
3283 H_28301 45.514 14.546 -15.667 h1 227 NIL_227    0.000
3284 H_28302 47.243 14.841 -15.436 h1 227 NIL_227    0.000
3285 H_28281 44.922 11.805 -15.494 hc 227 NIL_227    0.000
3286 H_28282 46.339 10.818 -15.135 hc 227 NIL_227    0.000
3287 H_35261 51.761 12.804 -13.648 hc 227 NIL_227    0.000
3288 H_35262 50.181 13.539 -13.346 hc 227 NIL_227    0.000
3289 H_35263 50.939 13.737 -14.912 hc 227 NIL_227    0.000
3290 H_35241 50.725 11.307 -15.388 hc 227 NIL_227    0.000
3291 H_35242 50.014 11.036 -13.791 hc 227 NIL_227    0.000
3292 H_35221 48.822 12.848 -15.946 h1 227 NIL_227    0.000
3293 H_35222 48.253 11.205 -15.558 h1 227 NIL_227    0.000
3294 HH 45.564 9.466 -16.891 hn 227 NIL_227    0.000
3295 N 36.497 9.514 -3.788 n 228 NIL_228    0.000
3296 C_2464 37.790 10.053 -4.267 c3 228 NIL_228    0.000
3297 C_2463 37.504 11.376 -5.013 c3 228 NIL_228    0.000
3298 C_2465 38.381 9.278 -5.542 c3 228 NIL_228    0.000
3299 C_2476 38.761 10.255 -3.038 c 228 NIL_228    0.000
3300 C_2462 37.112 10.901 -6.538 c3 228 NIL_228    0.000
3301 N 37.933 9.893 -6.860 n 228 NIL_228    0.000
3302 O 39.865 10.730 -3.217 o 228 NIL_228    0.000
3303 C_2467 36.889 12.018 -7.529 c 228 NIL_228    0.000
3304 O 36.530 13.139 -7.235 o 228 NIL_228    0.000
3305 H_2462 36.067 10.453 -6.433 h1 228 NIL_228    0.000
3306 H_24651 39.472 9.318 -5.501 h1 228 NIL_228    0.000
3307 H_24652 38.067 8.230 -5.515 h1 228 NIL_228    0.000
3308 H_24631 38.376 11.988 -5.083 hc 228 NIL_228    0.000
3309 H_24632 36.699 11.959 -4.517 hc 228 NIL_228    0.000
3310 C_268 40.364 21.866 18.154 c3 229 NIL_229    0.000
3311 C_267 41.201 20.670 17.661 c3 229 NIL_229    0.000
3312 C.fa 39.601 21.358 19.396 c3 229 NIL_229    0.000
3313 N 41.489 19.867 18.833 n 229 NIL_229    0.000
3314 C_272 42.442 21.059 16.899 c 229 NIL_229    0.000
3315 C_270 40.450 20.134 19.845 c3 229 NIL_229    0.000
3316 NH 38.211 20.972 19.098 n 229 NIL_229    0.000
3317 O 42.471 22.031 16.172 o 229 NIL_229    0.000
3318 H_2701 40.932 20.344 20.802 h1 229 NIL_229    0.000
3319 H_2702 39.813 19.252 19.948 h1 229 NIL_229    0.000
3320 H.fa 39.595 22.125 20.175 h1 229 NIL_229    0.000
3321 H_267 40.596 20.056 16.987 h1 229 NIL_229    0.000
3322 H_2681 39.687 22.240 17.383 hc 229 NIL_229    0.000
3323 H_2682 41.039 22.669 18.456 hc 229 NIL_229    0.000
3324 HH 38.117 20.057 18.694 hn 229 NIL_229    0.000
3325 C_2530 35.990 9.782 6.275 c3 230 NIL_230    0.000
3326 C_2531 35.822 11.276 5.962 c3 230 NIL_230    0.000
3327 C_3500 34.506 11.522 5.216 c3 230 NIL_230    0.000
3328 H_35001 34.496 10.972 4.273 hc 230 NIL_230    0.000
3329 H_35002 34.385 12.586 5.001 hc 230 NIL_230    0.000
3330 H_35003 33.660 11.189 5.822 hc 230 NIL_230    0.000
3331 H_25311 36.528 11.604 5.301 hc 230 NIL_230    0.000
3332 H_25312 35.833 11.848 6.892 hc 230 NIL_230    0.000
3333 H_25301 35.179 9.458 6.932 h1 230 NIL_230    0.000
3334 H_25302 35.945 9.207 5.347 h1 230 NIL_230    0.000
3335 C_728 34.712 19.830 17.034 c3 231 NIL_231    0.000
3336 C_727 35.614 18.669 17.499 c3 231 NIL_231    0.000
3337 N 35.397 21.076 17.436 n3 231 NIL_231    0.000
3338 C_726 36.388 19.329 18.667 c3 231 NIL_231    0.000
3339 N 36.505 18.231 16.402 n 231 NIL_231    0.000
3340 C_738 34.779 17.512 18.030 c 231 NIL_231    0.000
3341 C_725 35.906 20.798 18.786 c3 231 NIL_231    0.000
3342 O 33.694 17.681 18.547 o 231 NIL_231    0.000
3343 C_729 37.053 21.671 19.279 c 231 NIL_231    0.000
3344 O 36.972 22.792 19.737 o 231 NIL_231    0.000
3345 H_725 35.085 20.857 19.506 h1 231 NIL_231    0.000
3346 H_7261 37.452 19.303 18.441 hc 231 NIL_231    0.000
3347 H_7262 36.223 18.793 19.604 hc 231 NIL_231    0.000
3348 H_7281 34.537 19.802 15.956 h1 231 NIL_231    0.000
3349 H_7282 33.757 19.771 17.561 h1 231 NIL_231    0.000
3350 C_2960 46.192 13.972 1.953 c 232 NIL_232    0.000
3351 C_2956 46.696 13.100 0.739 c3 232 NIL_232    0.000
3352 O 45.383 14.859 1.768 o 232 NIL_232    0.000
3353 C_2955 47.829 13.756 -0.114 c3 232 NIL_232    0.000
3354 C_2957 45.631 12.852 -0.431 c3 232 NIL_232    0.000
3355 N 47.203 11.827 1.305 n 232 NIL_232    0.000
3356 C_2954 47.352 13.942 -1.599 c3 232 NIL_232    0.000
3357 N 46.188 13.124 -1.814 n 232 NIL_232    0.000
3358 C_2959 48.381 13.725 -2.695 c 232 NIL_232    0.000
3359 O 49.562 13.910 -2.484 o 232 NIL_232    0.000
3360 H_2954 47.015 14.975 -1.712 h1 232 NIL_232    0.000
3361 H_29571 45.271 11.822 -0.388 h1 232 NIL_232    0.000
3362 H_29572 44.777 13.517 -0.274 h1 232 NIL_232    0.000
3363 H_29551 48.698 13.094 -0.103 hc 232 NIL_232    0.000
3364 H_29552 48.129 14.713 0.312 hc 232 NIL_232    0.000
3365 N 42.557 8.138 18.082 n 233 NIL_233    0.000
3366 C_3832 42.307 9.395 17.403 c3 233 NIL_233    0.000
3367 C_3835 43.947 8.116 18.570 c3 233 NIL_233    0.000
3368 C_3833 43.692 9.963 17.022 c3 233 NIL_233    0.000
3369 C_3837 41.362 9.222 16.234 c 233 NIL_233    0.000
3370 C_3834 44.726 9.315 17.969 c3 233 NIL_233    0.000
3371 O 41.411 9.931 15.250 o 233 NIL_233    0.000
3372 N 45.881 8.823 17.204 n 233 NIL_233    0.000
3373 C_3841 45.152 10.275 19.074 c 233 NIL_233    0.000
3374 H 45.747 7.956 16.705 hn 233 NIL_233    0.000
3375 O 44.448 10.492 20.039 o 233 NIL_233    0.000
3376 H_38331 43.928 9.666 15.999 hc 233 NIL_233    0.000
3377 H_38332 43.715 11.053 17.086 hc 233 NIL_233    0.000
3378 H_38351 44.421 7.181 18.261 h1 233 NIL_233    0.000
3379 H_38352 43.953 8.186 19.661 h1 233 NIL_233    0.000
3380 H_3832 41.822 10.066 18.116 h1 233 NIL_233    0.000
3381 C_3502 39.976 13.644 1.314 c3 234 NIL_234    0.000
3382 C_2529 39.457 12.893 0.080 c3 234 NIL_234    0.000
3383 C_2528 38.024 12.399 0.324 c3 234 NIL_234    0.000
3384 H_25281 37.392 13.246 0.600 h1 234 NIL_234    0.000
3385 H_25282 37.637 11.956 -0.597 h1 234 NIL_234    0.000
3386 H_25291 39.473 13.562 -0.782 hc 234 NIL_234    0.000
3387 H_25292 40.126 12.079 -0.134 hc 234 NIL_234    0.000
3388 H_35021 39.991 12.983 2.182 hc 234 NIL_234    0.000
3389 H_35022 39.330 14.495 1.538 hc 234 NIL_234    0.000
3390 H_35023 40.988 14.013 1.139 hc 234 NIL_234    0.000
3391 C_3887 34.582 15.005 18.124 c3 235 NIL_235    0.000
3392 C_3886 35.426 13.816 17.593 c3 235 NIL_235    0.000
3393 N 35.281 16.270 17.846 n 235 NIL_235    0.000
3394 C_3885 36.603 14.520 16.873 c3 235 NIL_235    0.000
3395 N 34.632 13.035 16.632 n 235 NIL_235    0.000
3396 C_3892 35.908 12.962 18.764 c 235 NIL_235    0.000
3397 C_3884 36.616 15.988 17.356 c3 235 NIL_235    0.000
3398 H 34.026 13.567 16.025 hn 235 NIL_235    0.000
3399 O 36.271 13.460 19.810 o 235 NIL_235    0.000
3400 C_3888 37.052 16.994 16.311 c 235 NIL_235    0.000
3401 O 37.786 16.677 15.418 o 235 NIL_235    0.000
3402 H_3884 37.301 16.084 18.202 h1 235 NIL_235    0.000
3403 H_38851 36.421 14.502 15.795 hc 235 NIL_235    0.000
3404 H_38852 37.555 14.024 17.070 hc 235 NIL_235    0.000
3405 H_38871 33.611 15.020 17.623 h1 235 NIL_235    0.000
3406 H_38872 34.430 14.907 19.201 h1 235 NIL_235    0.000
3407 C_2292 47.863 15.678 15.312 c3 236 NIL_236    0.000
3408 C_243 47.029 15.239 14.116 c 236 NIL_236    0.000
3409 O 45.855 15.289 14.068 o 236 NIL_236    0.000
3410 H_22921 48.415 14.806 15.673 h1 236 NIL_236    0.000
3411 H_22922 48.570 16.435 14.964 h1 236 NIL_236    0.000
3412 C_2474 38.069 10.029 0.838 c3 237 NIL_237    0.000
3413 C_2473 36.771 9.614 0.059 c3 237 NIL_237    0.000
3414 C_2475 39.076 10.063 -0.408 c3 237 NIL_237    0.000
3415 C_2478 38.394 9.054 2.040 c 237 NIL_237    0.000
3416 N 37.956 11.398 1.386 n 237 NIL_237    0.000
3417 C_2472 37.170 9.206 -1.405 c3 237 NIL_237    0.000
3418 N 38.364 9.932 -1.741 n 237 NIL_237    0.000
3419 O 38.815 7.937 1.816 o 237 NIL_237    0.000
3420 C_2477 36.114 9.267 -2.499 c 237 NIL_237    0.000
3421 O 34.944 9.076 -2.240 o 237 NIL_237    0.000
3422 H_2472 37.472 8.156 -1.369 h1 237 NIL_237    0.000
3423 H_24751 39.626 10.964 -0.400 h1 237 NIL_237    0.000
3424 H_24752 39.775 9.227 -0.324 h1 237 NIL_237    0.000
3425 H_24731 36.095 10.471 0.018 hc 237 NIL_237    0.000
3426 H_24732 36.252 8.795 0.564 hc 237 NIL_237    0.000
3427 C_2521 36.949 12.704 -9.880 c3 238 NIL_238    0.000
3428 C_2522 38.076 12.842 -10.878 c3 238 NIL_238    0.000
3429 C_3506 39.401 13.248 -10.114 c3 238 NIL_238    0.000
3430 H_35061 39.660 12.501 -9.347 hc 238 NIL_238    0.000
3431 H_35062 39.233 14.196 -9.643 hc 238 NIL_238    0.000
3432 H_35063 40.232 13.320 -10.814 hc 238 NIL_238    0.000
3433 H_25221 37.899 13.494 -11.654 hc 238 NIL_238    0.000
3434 H_25222 38.194 11.896 -11.441 hc 238 NIL_238    0.000
3435 H_25211 36.808 13.682 -9.415 h1 238 NIL_238    0.000
3436 H_25212 36.040 12.440 -10.426 h1 238 NIL_238    0.000
3437 C_111 39.818 5.911 17.069 c3 239 NIL_239    0.000
3438 C_110 40.335 7.303 17.484 c3 239 NIL_239    0.000
3439 N 38.407 5.824 17.497 n3 239 NIL_239    0.000
3440 C_109 39.224 7.785 18.458 c3 239 NIL_239    0.000
3441 N 40.504 8.176 16.297 n 239 NIL_239    0.000
3442 C_137 41.642 7.156 18.249 c 239 NIL_239    0.000
3443 C_108 38.318 6.563 18.763 c3 239 NIL_239    0.000
3444 O 41.875 6.183 18.934 o 239 NIL_239    0.000
3445 C_113 36.921 7.000 19.198 c 239 NIL_239    0.000
3446 O 36.020 6.274 19.566 o 239 NIL_239    0.000
3447 H_108 38.760 5.976 19.572 h1 239 NIL_239    0.000
3448 H_1091 38.634 8.561 17.961 hc 239 NIL_239    0.000
3449 H_1092 39.645 8.206 19.375 hc 239 NIL_239    0.000
3450 H_1111 39.912 5.763 15.990 h1 239 NIL_239    0.000
3451 H_1112 40.393 5.147 17.598 h1 239 NIL_239    0.000
3452 C_2855 45.970 12.982 6.943 c 240 NIL_240    0.000
3453 C_2849 46.885 13.563 5.845 c3 240 NIL_240    0.000
3454 O 45.071 12.232 6.620 o 240 NIL_240    0.000
3455 C_2848 47.045 12.000 5.823 c3 240 NIL_240    0.000
3456 C_2850 46.141 14.233 4.593 c3 240 NIL_240    0.000
3457 N 47.881 14.430 6.529 n 240 NIL_240    0.000
3458 C_2847 47.112 12.931 3.289 c3 240 NIL_240    0.000
3459 N 46.601 13.682 3.243 n 240 NIL_240    0.000
3460 C_2852 47.560 11.500 2.443 c 240 NIL_240    0.000
3461 O 48.160 10.542 2.866 o 240 NIL_240    0.000
3462 H_2847 48.595 13.699 2.942 h1 240 NIL_240    0.000
3463 H_28501 45.071 14.045 4.674 h1 240 NIL_240    0.000
3464 H_28502 46.307 15.315 4.611 h1 240 NIL_240    0.000
3465 H_28481 46.924 11.505 5.145 hc 240 NIL_240    0.000
3466 H_28482 48.506 12.007 5.731 hc 240 NIL_240    0.000
3467 C_3520 47.011 8.653 -8.932 c3 241 NIL_241    0.000
3468 C_3007 45.659 9.153 -9.469 c3 241 NIL_241    0.000
3469 C_3006 45.794 10.581 -10.017 c3 241 NIL_241    0.000
3470 H_30061 46.497 10.592 -10.853 h1 241 NIL_241    0.000
3471 H_30062 44.819 10.926 -10.372 h1 241 NIL_241    0.000
3472 H_30071 45.310 8.483 -10.256 hc 241 NIL_241    0.000
3473 H_30072 44.921 9.140 -8.665 hc 241 NIL_241    0.000
3474 H_35201 47.475 9.299 -8.233 hc 241 NIL_241    0.000
3475 H_35202 47.742 8.582 -9.732 hc 241 NIL_241    0.000
3476 H_35203 46.891 7.669 -8.475 hc 241 NIL_241    0.000
3477 C_262 49.857 14.044 19.435 c 242 NIL_242    0.000
3478 C_257 49.513 15.454 18.979 c3 242 NIL_242    0.000
3479 O 50.938 13.649 19.823 o 242 NIL_242    0.000
3480 N 50.138 15.918 17.737 n3 242 NIL_242    0.000
3481 C_258 48.009 15.527 18.625 c3 242 NIL_242    0.000
3482 C_260 49.287 17.017 17.231 c3 242 NIL_242    0.000
3483 C_259 47.828 16.668 17.599 c3 242 NIL_242    0.000
3484 N 47.050 16.234 16.414 n 242 NIL_242    0.000
3485 C_271 47.177 17.848 18.303 c 242 NIL_242    0.000
3486 O 47.819 18.638 18.965 o 242 NIL_242    0.000
3487 H_2601 49.405 17.144 16.153 h1 242 NIL_242    0.000
3488 H_2602 49.565 17.943 17.740 h1 242 NIL_242    0.000
3489 H_2581 47.704 14.586 18.163 hc 242 NIL_242    0.000
3490 H_2582 47.396 15.688 19.515 hc 242 NIL_242    0.000
3491 H_257 49.735 16.151 19.790 h1 242 NIL_242    0.000
3492 N 47.965 13.292 -3.923 n 243 NIL_243    0.000
3493 C_2946 46.584 12.988 -4.364 c3 243 NIL_243    0.000
3494 C_2945 46.562 11.667 -5.194 c3 243 NIL_243    0.000
3495 C_2947 46.056 13.918 -5.525 c3 243 NIL_243    0.000
3496 C_2958 45.678 12.845 -3.078 c 243 NIL_243    0.000
3497 C_2944 46.972 12.016 -6.660 c3 243 NIL_243    0.000
3498 N 46.100 13.229 -6.871 n 243 NIL_243    0.000
3499 O 44.550 12.405 -3.175 o 243 NIL_243    0.000
3500 C_2949 46.569 11.030 -7.739 c 243 NIL_243    0.000
3501 O 46.390 9.893 -7.429 o 243 NIL_243    0.000
3502 H_2944 48.061 12.098 -6.715 h1 243 NIL_243    0.000
3503 H_29471 45.031 14.051 -5.518 h1 243 NIL_243    0.000
3504 H_29472 46.196 15.351 -4.905 h1 243 NIL_243    0.000
3505 H_29451 45.539 11.284 -5.206 hc 243 NIL_243    0.000
3506 H_29452 47.212 10.905 -4.758 hc 243 NIL_243    0.000
3507 C_1480 35.917 19.508 5.729 c3 244 NIL_244    0.000
3508 C_1481 36.276 19.372 4.243 c3 244 NIL_244    0.000
3509 C_3528 36.923 18.009 3.972 c3 244 NIL_244    0.000
3510 H_35281 36.235 17.227 4.208 hc 244 NIL_244    0.000
3511 H_35282 37.712 18.200 4.088 hc 244 NIL_244    0.000
3512 H_35283 37.130 17.889 2.934 hc 244 NIL_244    0.000
3513 H_14811 36.877 20.043 4.243 hc 244 NIL_244    0.000
3514 H_14812 35.377 19.474 3.633 hc 244 NIL_244    0.000
3515 H_14801 35.488 20.496 5.912 h1 244 NIL_244    0.000
3516 H_14802 35.174 18.749 5.989 h1 244 NIL_244    0.000
3517 C_2948 46.258 13.831 -8.233 c 245 NIL_245    0.000
3518 C_2937 46.419 12.884 -9.481 c3 245 NIL_245    0.000
3519 O 45.938 14.990 -8.378 o 245 NIL_245    0.000
3520 C_2936 47.773 13.020 -10.259 c3 245 NIL_245    0.000
3521 C_2938 45.421 13.171 -10.696 c3 245 NIL_245    0.000
3522 N 46.276 11.498 -8.986 n 245 NIL_245    0.000
3523 C_2935 47.497 13.412 -11.758 c3 245 NIL_245    0.000
3524 N 46.109 13.164 -12.043 n 245 NIL_245    0.000
3525 C_2939 48.386 12.809 -12.833 c 245 NIL_245    0.000
3526 O 49.505 12.439 -12.560 o 245 NIL_245    0.000
3527 H_2935 47.631 14.494 -11.849 h1 245 NIL_245    0.000
3528 H_29381 44.620 12.428 -10.702 h1 245 NIL_245    0.000
3529 H_29382 44.975 14.159 -10.561 h1 245 NIL_245    0.000
3530 H_29361 48.292 12.059 -10.231 hc 245 NIL_245    0.000
3531 H_29362 48.417 13.763 -9.785 hc 245 NIL_245    0.000
3532 C_1297 41.808 19.347 -17.895 c 246 NIL_246    0.000
3533 C_1292 40.581 19.835 -16.958 c3 246 NIL_246    0.000
3534 O 41.597 18.529 -18.768 o 246 NIL_246    0.000
3535 NH 43.126 19.840 -17.734 n 246 NIL_246    0.000
3536 N 39.121 19.296 -17.090 n 246 NIL_246    0.000
3537 C_1293 40.948 19.591 -15.438 c3 246 NIL_246    0.000
3538 C_3668 44.472 19.640 -18.534 c3 246 NIL_246    0.000
3539 C_1295 38.793 18.721 -15.728 c3 246 NIL_246    0.000
3540 C_1294 39.662 19.355 -14.573 c3 246 NIL_246    0.000
3541 C_3656 45.264 18.229 -18.381 c2 246 NIL_246    0.000
3542 N 39.098 20.639 -14.098 n 246 NIL_246    0.000
3543 C_1306 39.942 18.447 -13.318 c 246 NIL_246    0.000
3544 C_3654 46.299 17.865 -19.159 c2 246 NIL_246    0.000
3545 C_3658 44.983 17.275 -17.478 c2 246 NIL_246    0.000
3546 C_3544 39.190 21.671 -15.127 c3 246 NIL_246    0.000
3547 O 40.629 17.452 -13.430 o 246 NIL_246    0.000
3548 C_3652 46.963 16.688 -19.064 c2 246 NIL_246    0.000
3549 C_3660 45.647 16.098 -17.376 c2 246 NIL_246    0.000
3550 C_3546 40.638 22.120 -15.361 c3 246 NIL_246    0.000
3551 C_3574 46.672 15.735 -18.164 c2 246 NIL_246    0.000
3552 C_3548 40.691 23.138 -16.507 c3 246 NIL_246    0.000
3553 C_2831 47.331 14.403 -18.090 c 246 NIL_246    0.000
3554 O 48.122 14.040 -18.937 o 246 NIL_246    0.000
3555 H_35481 40.110 24.026 -16.251 hc 246 NIL_246    0.000
3556 H_35482 40.278 22.701 -17.419 hc 246 NIL_246    0.000
3557 H_35483 41.722 23.437 -16.700 hc 246 NIL_246    0.000
3558 H_35461 41.222 21.359 -15.684 hc 246 NIL_246    0.000
3559 H_35462 41.039 22.564 -14.447 hc 246 NIL_246    0.000
3560 H_3660 45.314 15.399 -16.630 ha 246 NIL_246    0.000
3561 H_3652 47.771 16.498 -19.766 ha 246 NIL_246    0.000
3562 H_35441 38.590 22.531 -14.818 h1 246 NIL_246    0.000
3563 H_35442 38.778 21.272 -16.058 h1 246 NIL_246    0.000
3564 H_3658 44.161 17.455 -16.791 ha 246 NIL_246    0.000
3565 H_3654 46.619 18.563 -19.928 ha 246 NIL_246    0.000
3566 H_12951 39.008 17.655 -15.752 h1 246 NIL_246    0.000
3567 H_12952 37.730 18.869 -15.518 h1 246 NIL_246    0.000
3568 H_36681 45.151 20.441 -18.234 h1 246 NIL_246    0.000
3569 H_36682 44.244 19.786 -19.594 h1 246 NIL_246    0.000
3570 H_12931 41.572 18.701 -15.376 hc 246 NIL_246    0.000
3571 H_12932 41.567 20.328 -14.971 hc 246 NIL_246    0.000
3572 H_1292 40.525 20.917 -17.110 h1 246 NIL_246    0.000
3573 HH 43.229 20.505 -16.982 hn 246 NIL_246    0.000
3574 C_1343 38.304 19.159 11.869 c3 247 NIL_247    0.000
3575 NH 37.449 19.491 13.019 n 247 NIL_247    0.000
3576 C_1335 37.881 19.770 10.406 c3 247 NIL_247    0.000
3577 C_1323 38.056 19.025 8.950 c3 247 NIL_247    0.000
3578 C_1319 36.903 19.309 7.969 c 247 NIL_247    0.000
3579 NH 39.319 19.164 8.171 n 247 NIL_247    0.000
3580 O 35.789 19.508 8.408 o 247 NIL_247    0.000
3581 H_1323 37.959 17.955 9.150 h1 247 NIL_247    0.000
3582 H_13351 36.806 19.944 10.490 hc 247 NIL_247    0.000
3583 H_13352 38.319 20.768 10.325 hc 247 NIL_247    0.000
3584 H_13431 38.299 18.070 11.785 h1 247 NIL_247    0.000
3585 H_13432 39.328 19.466 12.099 h1 247 NIL_247    0.000
3586 HH 40.160 19.150 8.729 hn 247 NIL_247    0.000
3587 HH 36.810 20.268 12.943 hn 247 NIL_247    0.000
3588 N 38.090 10.415 -11.955 n 248 NIL_248    0.000
3589 C_2355 37.157 9.394 -11.644 c3 248 NIL_248    0.000
3590 C_2358 38.719 10.708 -10.544 c3 248 NIL_248    0.000
3591 C_2356 36.602 9.681 -10.202 c3 248 NIL_248    0.000
3592 C_2360 36.174 9.136 -12.778 c 248 NIL_248    0.000
3593 C_2357 37.698 10.443 -9.381 c3 248 NIL_248    0.000
3594 O 35.118 8.576 -12.568 o 248 NIL_248    0.000
3595 N 37.169 11.711 -8.829 n 248 NIL_248    0.000
3596 C_2369 38.261 9.585 -8.179 c 248 NIL_248    0.000
3597 O 39.006 8.653 -8.399 o 248 NIL_248    0.000
3598 H_23561 35.715 10.316 -10.273 hc 248 NIL_248    0.000
3599 H_23562 36.319 8.752 -9.702 hc 248 NIL_248    0.000
3600 H_23581 39.085 11.759 -10.472 h1 248 NIL_248    0.000
3601 H_23582 39.603 10.184 -10.475 h1 248 NIL_248    0.000
3602 H_2355 37.754 8.480 -11.583 h1 248 NIL_248    0.000
3603 O 45.076 15.994 15.385 o 249 NIL_249    0.000
3604 C_3865 45.704 16.359 16.307 c 249 NIL_249    0.000
3605 C_3861 44.990 17.056 17.447 c3 249 NIL_249    0.000
3606 N 45.849 18.009 18.120 n 249 NIL_249    0.000
3607 C_3862 43.708 17.824 17.053 c3 249 NIL_249    0.000
3608 C_3864 45.034 19.117 18.632 c3 249 NIL_249    0.000
3609 C_3863 43.654 19.103 17.927 c3 249 NIL_249    0.000
3610 N 43.544 20.301 17.083 n 249 NIL_249    0.000
3611 C_3869 42.540 19.022 18.969 c 249 NIL_249    0.000
3612 H 44.382 20.565 16.588 hn 249 NIL_249    0.000
3613 O 42.616 18.276 19.923 o 249 NIL_249    0.000
3614 H_38641 45.542 20.065 18.438 h1 249 NIL_249    0.000
3615 H_38642 44.900 18.992 19.710 h1 249 NIL_249    0.000
3616 H_38621 43.770 18.110 16.001 hc 249 NIL_249    0.000
3617 H_38622 42.818 17.206 17.194 hc 249 NIL_249    0.000
3618 H_3861 44.735 16.282 18.176 h1 249 NIL_249    0.000
3619 C_2376 38.591 9.117 9.084 c3 250 NIL_250    0.000
3620 C_2372 37.285 9.389 8.315 c 250 NIL_250    0.000
3621 NH 39.697 9.469 8.150 n 250 NIL_250    0.000
3622 C_2388 38.796 9.749 10.586 c3 250 NIL_250    0.000
3623 O 36.241 9.488 8.927 o 250 NIL_250    0.000
3624 C_2396 38.186 9.236 12.023 c3 250 NIL_250    0.000
3625 NH 38.995 8.355 12.882 n 250 NIL_250    0.000
3626 H_23961 37.984 10.128 12.620 h1 250 NIL_250    0.000
3627 H_23962 37.225 8.748 11.843 h1 250 NIL_250    0.000
3628 H_23881 38.491 10.794 10.497 hc 250 NIL_250    0.000
3629 H_23882 39.876 9.793 10.741 hc 250 NIL_250    0.000
3630 H_2376 38.629 8.029 9.188 h1 250 NIL_250    0.000
3631 HH 38.985 7.366 12.679 hn 250 NIL_250    0.000
3632 HH 40.604 9.511 8.591 hn 250 NIL_250    0.000
3633 N 38.364 18.981 2.893 n 251 NIL_251    0.000
3634 C_1312 38.184 20.227 3.408 c3 251 NIL_251    0.000
3635 C_1315 38.934 18.401 4.983 c3 251 NIL_251    0.000
3636 C_1313 38.573 20.521 4.913 c3 251 NIL_251    0.000
3637 C_1317 38.866 20.985 2.330 c 251 NIL_251    0.000
3638 C_1314 38.389 19.298 5.802 c3 251 NIL_251    0.000
3639 O 39.323 22.092 2.530 o 251 NIL_251    0.000
3640 N 37.079 19.332 6.599 n 251 NIL_251    0.000
3641 C_1320 39.499 19.123 6.799 c 251 NIL_251    0.000
3642 O 40.630 19.031 6.369 o 251 NIL_251    0.000
3643 H_13131 39.637 20.753 4.928 hc 251 NIL_251    0.000
3644 H_13132 38.032 21.383 5.310 hc 251 NIL_251    0.000
3645 H_13151 39.304 17.588 4.651 h1 251 NIL_251    0.000
3646 H_13152 36.746 16.736 5.223 h1 251 NIL_251    0.000
3647 H_1312 37.136 20.594 3.057 h1 251 NIL_251    0.000
3648 N 39.475 18.806 -12.060 n 252 NIL_252    0.000
3649 C_1302 38.452 19.796 -11.845 c3 252 NIL_252    0.000
3650 C_1305 39.720 18.185 -10.705 c3 252 NIL_252    0.000
3651 C_1303 38.433 20.172 -10.315 c3 252 NIL_252    0.000
3652 C_1307 38.547 20.915 -12.876 c 252 NIL_252    0.000
3653 C_1304 39.272 19.130 -9.498 c3 252 NIL_252    0.000
3654 O 38.147 22.034 -12.628 o 252 NIL_252    0.000
3655 N 40.444 19.809 -8.914 n 252 NIL_252    0.000
3656 C_1316 38.521 18.425 -8.305 c 252 NIL_252    0.000
3657 O 37.814 17.459 -8.507 o 252 NIL_252    0.000
3658 H_13031 38.870 21.164 -10.175 hc 252 NIL_252    0.000
3659 H_13032 37.404 20.203 -9.951 hc 252 NIL_252    0.000
3660 H_13051 40.555 18.044 -10.765 h1 252 NIL_252    0.000
3661 H_13052 39.151 17.255 -10.658 h1 252 NIL_252    0.000
3662 H_1302 37.503 19.299 -12.067 h1 252 NIL_252    0.000
3663 N 38.222 9.460 3.363 n 253 NIL_253    0.000
3664 C_2365 37.653 10.720 3.762 c3 253 NIL_253    0.000
3665 C_2368 38.464 8.732 4.679 c3 253 NIL_253    0.000
3666 C_2366 38.248 11.040 5.177 c3 253 NIL_253    0.000
3667 C_2370 37.780 11.782 2.684 c 253 NIL_253    0.000
3668 C_2367 38.391 9.696 5.962 c3 253 NIL_253    0.000
3669 O 37.733 12.962 2.965 o 253 NIL_253    0.000
3670 N 37.264 9.513 6.934 n 253 NIL_253    0.000
3671 C_2373 39.687 9.683 6.787 c 253 NIL_253    0.000
3672 O 40.744 9.893 6.227 o 253 NIL_253    0.000
3673 H_23661 39.232 11.490 5.052 hc 253 NIL_253    0.000
3674 H_23662 37.741 11.768 5.765 hc 253 NIL_253    0.000
3675 H_23681 39.451 8.267 4.636 h1 253 NIL_253    0.000
3676 H_23682 37.718 7.940 4.784 h1 253 NIL_253    0.000
3677 H_2365 36.579 10.548 3.877 h1 253 NIL_253    0.000
3678 C_3514 48.830 12.707 4.541 c3 254 NIL_254    0.000
3679 C_3013 48.608 14.419 4.248 c3 254 NIL_254    0.000
3680 C_3012 48.885 14.884 5.571 c3 254 NIL_254    0.000
3681 H_30121 49.868 14.543 5.906 h1 254 NIL_254    0.000
3682 H_30122 48.880 15.977 5.541 h1 254 NIL_254    0.000
3683 H_30131 49.406 14.631 3.485 hc 254 NIL_254    0.000
3684 H_30132 47.684 14.755 3.790 hc 254 NIL_254    0.000
3685 H_35141 49.444 12.366 4.581 hc 254 NIL_254    0.000
3686 H_35142 48.718 12.170 3.198 hc 254 NIL_254    0.000
3687 H_35143 48.285 12.849 4.302 hc 254 NIL_254    0.000
3688 C_1415 38.369 18.220 -5.656 c3 255 NIL_255    0.000
3689 C_1414 38.725 19.161 -4.413 c3 255 NIL_255    0.000
3690 N 38.796 18.840 -6.983 n 255 NIL_255    0.000
3691 C_1413 39.796 20.015 -5.159 c3 255 NIL_255    0.000
3692 N 37.574 20.002 -3.985 n 255 NIL_255    0.000
3693 C_1426 39.374 18.521 -3.127 c 255 NIL_255    0.000
3694 C_1412 39.418 20.086 -6.676 c3 255 NIL_255    0.000
3695 O 40.433 17.931 -3.209 o 255 NIL_255    0.000
3696 C_1417 40.567 20.305 -7.649 c 255 NIL_255    0.000
3697 O 41.589 20.862 -7.305 o 255 NIL_255    0.000
3698 H_1412 38.718 20.908 -6.835 h1 255 NIL_255    0.000
3699 H_14131 40.759 19.507 -5.078 hc 255 NIL_255    0.000
3700 H_14132 39.898 21.006 -4.714 hc 255 NIL_255    0.000
3701 H_14151 38.949 17.301 -5.577 h1 255 NIL_255    0.000
3702 H_14152 37.521 17.838 -5.539 h1 255 NIL_255    0.000
3703 C_2285 39.814 7.686 15.088 c3 256 NIL_256    0.000
3704 C_766 39.438 8.773 14.094 c 256 NIL_256    0.000
3705 O 39.467 9.951 14.381 o 256 NIL_256    0.000
3706 H_22851 38.895 7.172 15.378 h1 256 NIL_256    0.000
3707 H_22852 40.463 6.979 14.562 h1 256 NIL_256    0.000
3708 N 38.797 18.705 -1.877 n 257 NIL_257    0.000
3709 C_1422 37.408 19.038 -1.694 c3 257 NIL_257    0.000
3710 C_1425 39.338 18.436 -0.490 c3 257 NIL_257    0.000
3711 C_1423 37.161 19.387 -0.174 c3 257 NIL_257    0.000
3712 C_1427 36.954 20.023 -2.765 c 257 NIL_257    0.000
3713 C_1424 38.454 19.101 0.664 c3 257 NIL_257    0.000
3714 O 36.068 20.826 -2.550 o 257 NIL_257    0.000
3715 C_1428 38.283 18.222 1.933 c 257 NIL_257    0.000
3716 N 39.018 20.392 1.108 n 257 NIL_257    0.000
3717 O 38.170 17.006 1.856 o 257 NIL_257    0.000
3718 H_14231 36.888 20.441 -0.078 hc 257 NIL_257    0.000
3719 H_14232 36.329 18.791 0.209 hc 257 NIL_257    0.000
3720 H_14251 40.366 18.800 -0.425 h1 257 NIL_257    0.000
3721 H_14252 39.341 17.353 -0.343 h1 257 NIL_257    0.000
3722 H_1422 36.850 18.124 -1.908 h1 257 NIL_257    0.000
3723 C_188 38.827 3.638 18.545 c3 258 NIL_258    0.000
3724 C_112 37.932 4.436 17.586 c3 258 NIL_258    0.000
3725 H_1121 37.960 3.984 16.591 h1 258 NIL_258    0.000
3726 H_1122 36.898 4.424 17.945 h1 258 NIL_258    0.000
3727 H_1881 38.455 2.617 18.654 hc 258 NIL_258    0.000
3728 H_1882 38.815 4.107 19.530 hc 258 NIL_258    0.000
3729 H_1883 39.862 3.601 18.190 hc 258 NIL_258    0.000
3730 N 46.392 10.817 18.984 n 259 NIL_259    0.000
3731 C_133 47.256 10.740 17.819 c3 259 NIL_259    0.000
3732 C_136 47.112 11.525 20.060 c3 259 NIL_259    0.000
3733 C_134 48.697 10.967 18.318 c3 259 NIL_259    0.000
3734 C_138 47.064 9.459 17.048 c 259 NIL_259    0.000
3735 C.fc 48.561 11.835 19.586 c3 259 NIL_259    0.000
3736 O 47.939 8.994 16.346 o 259 NIL_259    0.000
3737 NH 48.739 13.272 19.311 n 259 NIL_259    0.000
3738 H.fc 49.287 11.529 20.343 h1 259 NIL_259    0.000
3739 H_1341 49.315 11.452 17.562 hc 259 NIL_259    0.000
3740 H_1342 49.145 10.007 18.582 hc 259 NIL_259    0.000
3741 H_1361 47.142 10.876 20.940 h1 259 NIL_259    0.000
3742 H_1362 46.586 12.450 20.306 h1 259 NIL_259    0.000
3743 H_133 46.978 11.557 17.148 h1 259 NIL_259    0.000
3744 HH 47.909 13.738 18.977 hn 259 NIL_259    0.000
3745 C_737 35.975 10.623 19.716 c3 260 NIL_260    0.000
3746 C.fb 35.626 9.210 19.169 c3 260 NIL_260    0.000
3747 N 35.836 11.614 18.630 n 260 NIL_260    0.000
3748 C_735 34.981 9.536 17.806 c3 260 NIL_260    0.000
3749 NH 36.819 8.352 19.043 n 260 NIL_260    0.000
3750 C_734 35.556 10.907 17.396 c3 260 NIL_260    0.000
3751 C_739 34.672 11.695 16.462 c 260 NIL_260    0.000
3752 O 33.998 11.155 15.608 o 260 NIL_260    0.000
3753 H_734 36.510 10.759 16.880 h1 260 NIL_260    0.000
3754 H_7351 35.180 8.766 17.057 hc 260 NIL_260    0.000
3755 H_7352 33.899 9.627 17.936 hc 260 NIL_260    0.000
3756 H.fb 34.904 8.713 19.821 h1 260 NIL_260    0.000
3757 H_7371 35.280 10.887 20.516 h1 260 NIL_260    0.000
3758 H_7372 36.998 10.638 20.100 h1 260 NIL_260    0.000
3759 HH 37.651 8.829 18.732 hn 260 NIL_260    0.000
3760 C_2526 35.500 9.521 -4.857 c3 261 NIL_261    0.000
3761 C_2527 35.177 10.963 -5.312 c3 261 NIL_261    0.000
3762 C_3504 34.234 10.934 -6.531 c3 261 NIL_261    0.000
3763 H_35041 34.052 11.953 -6.881 hc 261 NIL_261    0.000
3764 H_35042 33.283 10.489 -6.239 hc 261 NIL_261    0.000
3765 H_35043 34.656 10.352 -7.354 hc 261 NIL_261    0.000
3766 H_25271 36.024 11.485 -5.598 hc 261 NIL_261    0.000
3767 H_25272 34.786 11.538 -4.529 hc 261 NIL_261    0.000
3768 H_25261 34.581 9.069 -4.480 h1 261 NIL_261    0.000
3769 H_25262 35.872 8.922 -5.695 h1 261 NIL_261    0.000
3770 C_2858 46.985 14.300 8.929 c3 262 NIL_262    0.000
3771 C_2854 48.003 14.756 7.866 c 262 NIL_262    0.000
3772 NH 46.163 13.234 8.291 n 262 NIL_262    0.000
3773 C_2870 47.650 14.087 10.421 c3 262 NIL_262    0.000
3774 O 48.955 15.426 8.210 o 262 NIL_262    0.000
3775 C_2878 46.894 14.263 11.868 c3 262 NIL_262    0.000
3776 NH 47.671 14.753 13.022 n 262 NIL_262    0.000
3777 H_28781 46.080 14.979 11.720 h1 262 NIL_262    0.000
3778 H_28782 46.438 13.309 12.143 h1 262 NIL_262    0.000
3779 H_28701 48.460 14.818 10.455 hc 262 NIL_262    0.000
3780 H_28702 48.146 13.115 10.425 hc 262 NIL_262    0.000
3781 H_2858 46.317 15.160 9.021 h1 262 NIL_262    0.000
3782 HH 48.677 14.671 13.010 hn 262 NIL_262    0.000
3783 HH 45.554 12.741 8.926 hn 262 NIL_262    0.000
3784 C_1478 39.705 21.070 0.014 c3 263 NIL_263    0.000
3785 C_1479 38.712 21.651 -1.005 c3 263 NIL_263    0.000
3786 C_3530 37.826 22.711 -0.336 c3 263 NIL_263    0.000
3787 H_35301 37.261 22.267 0.487 hc 263 NIL_263    0.000
3788 H_35302 37.121 23.126 -1.059 hc 263 NIL_263    0.000
3789 H_35303 38.444 23.521 0.057 hc 263 NIL_263    0.000
3790 H_14791 38.087 20.854 -1.409 hc 263 NIL_263    0.000
3791 H_14792 39.258 22.100 -1.836 hc 263 NIL_263    0.000
3792 H_14781 40.351 20.347 -0.486 h1 263 NIL_263    0.000
3793 H_14782 40.322 21.872 0.425 h1 263 NIL_263    0.000
3794 C_3010 47.136 10.723 0.349 c3 264 NIL_264    0.000
3795 C_3011 48.277 10.773 -0.679 c3 264 NIL_264    0.000
3796 C_3516 49.634 10.652 0.028 c3 264 NIL_264    0.000
3797 H_35161 49.768 11.473 0.736 hc 264 NIL_264    0.000
3798 H_35162 50.445 10.688 -0.702 hc 264 NIL_264    0.000
3799 H_35163 49.694 9.708 0.574 hc 264 NIL_264    0.000
3800 H_30111 48.234 11.710 -1.237 hc 264 NIL_264    0.000
3801 H_30112 48.162 9.954 -1.392 hc 264 NIL_264    0.000
3802 H_30101 46.176 10.764 -0.166 h1 264 NIL_264    0.000
3803 H_30102 47.197 9.781 0.900 h1 264 NIL_264    0.000
3804 C_1477 36.068 20.391 -5.933 c3 265 NIL_265    0.000
3805 C_1476 37.172 20.950 -5.024 c3 265 NIL_265    0.000
3806 C_3532 36.513 19.098 -6.628 c3 265 NIL_265    0.000
3807 H_35321 37.357 19.279 -7.205 hc 265 NIL_265    0.000
3808 H_35322 35.727 18.737 -7.293 hc 265 NIL_265    0.000
3809 H_35323 36.491 18.456 -5.976 hc 265 NIL_265    0.000
3810 H_14761 38.044 21.201 -5.627 h1 265 NIL_265    0.000
3811 H_14762 36.803 21.861 -4.543 h1 265 NIL_265    0.000
3812 H_14771 35.806 21.141 -6.685 hc 265 NIL_265    0.000
3813 H_14772 35.181 20.184 -5.330 hc 265 NIL_265    0.000
3814 C_1472 42.130 18.391 -9.999 c3 266 NIL_266    0.000
3815 C_1471 41.567 19.810 -9.844 c3 266 NIL_266    0.000
3816 C_3542 43.175 18.339 -11.120 c3 266 NIL_266    0.000
3817 H_35421 43.526 17.314 -11.256 hc 266 NIL_266    0.000
3818 H_35422 44.030 18.973 -10.873 hc 266 NIL_266    0.000
3819 H_35423 42.742 18.688 -12.060 hc 266 NIL_266    0.000
3820 H_14711 42.344 20.482 -9.473 h1 266 NIL_266    0.000
3821 H_14712 41.214 20.171 -10.813 h1 266 NIL_266    0.000
3822 H_14721 41.535 17.605 -10.082 hc 266 NIL_266    0.000
3823 H_14722 42.569 18.062 -9.058 hc 266 NIL_266    0.000
3824 C_660 51.540 16.326 17.915 c3 267 NIL_267    0.000
3825 C_662 51.620 17.540 18.853 c3 267 NIL_267    0.000
3826 H_6621 51.035 18.370 18.452 hc 267 NIL_267    0.000
3827 H_6622 52.652 17.876 18.958 hc 267 NIL_267    0.000
3828 H_6623 51.235 17.281 19.840 hc 267 NIL_267    0.000
3829 H_6601 51.964 16.594 16.943 h1 267 NIL_267    0.000
3830 H_6602 52.116 15.494 18.332 h1 267 NIL_267    0.000
3831 C_3009 48.962 14.252 -5.971 c3 268 NIL_268    0.000
3832 C_3008 48.935 13.072 -4.990 c3 268 NIL_268    0.000
3833 C_3518 47.617 14.455 -6.623 c3 268 NIL_268    0.000
3834 H_35181 47.277 14.234 -6.444 hc 268 NIL_268    0.000
3835 H_35182 47.609 13.602 -7.237 hc 268 NIL_268    0.000
3836 H_35183 47.594 15.274 -7.315 hc 268 NIL_268    0.000
3837 H_30081 48.674 12.155 -5.519 h1 268 NIL_268    0.000
3838 H_30082 49.924 12.945 -4.541 h1 268 NIL_268    0.000
3839 H_30091 49.709 14.070 -6.747 hc 268 NIL_268    0.000
3840 H_30092 49.242 15.165 -5.442 hc 268 NIL_268    0.000
3841 C_2299 36.618 19.207 15.307 c3 269 NIL_269    0.000
3842 C_309 37.522 18.778 14.169 c 269 NIL_269    0.000
3843 O 38.294 17.860 14.253 o 269 NIL_269    0.000
3844 H_22991 36.985 20.101 15.584 h1 269 NIL_269    0.000
3845 H_22992 35.628 19.326 14.883 h1 269 NIL_269    0.000
3846 C_769 36.521 21.336 16.534 c3 270 NIL_270    0.000
3847 C_770 36.014 21.443 15.079 c3 270 NIL_270    0.000
3848 H_7701 35.549 20.558 14.759 hc 270 NIL_270    0.000
3849 H_7702 36.844 21.661 14.403 hc 270 NIL_270    0.000
3850 H_7703 35.275 22.237 15.002 hc 270 NIL_270    0.000
3851 H_7691 37.263 20.535 16.696 h1 270 NIL_270    0.000
3852 H_7692 37.035 22.246 16.814 h1 270 NIL_270    0.000
3853 C_3691 -5.616 31.071 -19.171 c2 271 NIL_271    0.000
3854 C_3689 -4.929 32.236 -19.078 c2 271 NIL_271    0.000
3855 C_3693 -5.429 30.006 -18.372 c2 271 NIL_271    0.000
3856 C_3585 -3.976 32.468 -18.166 c2 271 NIL_271    0.000
3857 C_3695 -4.477 30.248 -17.458 c2 271 NIL_271    0.000
3858 C_3705 -6.253 28.616 -18.511 c3 271 NIL_271    0.000
3859 C_1296 -3.145 33.699 -18.090 c 271 NIL_271    0.000
3860 C_3697 -3.790 31.410 -17.360 c2 271 NIL_271    0.000
3861 NH -5.710 27.392 -17.681 n 271 NIL_271    0.000
3862 O -3.215 34.574 -18.930 o 271 NIL_271    0.000
3863 C_2350 -4.666 26.458 -17.888 c 271 NIL_271    0.000
3864 C_2345 -4.385 25.224 -16.891 c3 271 NIL_271    0.000
3865 O -3.944 26.591 -18.855 o 271 NIL_271    0.000
3866 N -3.300 24.143 -17.016 n 271 NIL_271    0.000
3867 C_2346 -4.188 25.789 -15.396 c3 271 NIL_271    0.000
3868 C_2348 -2.742 23.973 -15.617 c3 271 NIL_271    0.000
3869 C_2347 -3.625 24.653 -14.493 c3 271 NIL_271    0.000
3870 N -4.751 23.806 -14.050 n 271 NIL_271    0.000
3871 C_2359 -2.829 25.159 -13.228 c 271 NIL_271    0.000
3872 C_3508 -5.641 23.509 -15.168 c3 271 NIL_271    0.000
3873 O -1.922 25.954 -13.366 o 271 NIL_271    0.000
3874 C_3510 -6.363 24.768 -15.675 c3 271 NIL_271    0.000
3875 C_3512 -7.188 25.415 -14.576 c3 271 NIL_271    0.000
3876 H_35121 -7.924 24.706 -14.193 hc 271 NIL_271    0.000
3877 H_35122 -7.713 26.292 -14.962 hc 271 NIL_271    0.000
3878 H_35123 -6.542 25.730 -13.754 hc 271 NIL_271    0.000
3879 H_35101 -6.995 24.504 -16.528 hc 271 NIL_271    0.000
3880 H_35102 -5.668 25.507 -16.017 hc 271 NIL_271    0.000
3881 H_35081 -6.384 22.777 -14.844 h1 271 NIL_271    0.000
3882 H_35082 -5.048 23.072 -15.975 h1 271 NIL_271    0.000
3883 H_23481 -1.783 24.442 -15.570 h1 271 NIL_271    0.000
3884 H_23482 -2.628 22.908 -15.400 h1 271 NIL_271    0.000
3885 H_23461 -3.481 26.602 -15.446 hc 271 NIL_271    0.000
3886 H_23462 -5.130 26.191 -14.982 hc 271 NIL_271    0.000
3887 H_2345 -5.347 24.662 -16.908 h1 271 NIL_271    0.000
3888 H_3697 -3.040 31.476 -16.609 ha 271 NIL_271    0.000
3889 H_37051 -7.286 28.793 -18.202 h1 271 NIL_271    0.000
3890 H_37052 -6.269 28.321 -19.564 h1 271 NIL_271    0.000
3891 H_3695 -4.234 29.454 -16.756 ha 271 NIL_271    0.000
3892 H_3689 -5.155 33.023 -19.795 ha 271 NIL_271    0.000
3893 H_3691 -6.366 30.987 -19.952 ha 271 NIL_271    0.000
3894 HH -6.255 27.223 -16.848 hn 271 NIL_271    0.000
3895 C_3522 7.477 26.392 -15.152 c3 272 NIL_272    0.000
3896 N 6.635 26.939 -14.095 n 272 NIL_272    0.000
3897 C_3524 8.865 26.048 -14.604 c3 272 NIL_272    0.000
3898 C_2829 5.268 27.233 -14.579 c3 272 NIL_272    0.000
3899 C_3526 9.542 27.327 -14.091 c3 272 NIL_272    0.000
3900 C_2828 4.763 26.081 -15.505 c3 272 NIL_272    0.000
3901 C_2830 5.247 28.370 -15.683 c3 272 NIL_272    0.000
3902 C_2841 4.333 27.428 -13.328 c 272 NIL_272    0.000
3903 C_2827 5.230 26.312 -16.991 c3 272 NIL_272    0.000
3904 N 5.503 27.846 -17.087 n 272 NIL_272    0.000
3905 O 3.130 27.494 -13.477 o 272 NIL_272    0.000
3906 C_2832 4.239 25.497 -17.970 c 272 NIL_272    0.000
3907 O 3.768 26.052 -18.942 o 272 NIL_272    0.000
3908 NH 3.908 24.142 -17.731 n 272 NIL_272    0.000
3909 C_3643 3.084 23.076 -18.544 c3 272 NIL_272    0.000
3910 C_3631 1.466 23.103 -18.382 c2 272 NIL_272    0.000
3911 C_3629 0.618 22.539 -19.259 c2 272 NIL_272    0.000
3912 C_3633 0.799 23.686 -17.373 c2 272 NIL_272    0.000
3913 C_3627 -0.734 22.561 -19.151 c2 272 NIL_272    0.000
3914 C_3635 -0.553 23.712 -17.263 c2 272 NIL_272    0.000
3915 C_2378 -1.394 23.154 -18.147 c2 272 NIL_272    0.000
3916 C_2349 -2.879 23.268 -18.067 c 272 NIL_272    0.000
3917 O -3.591 22.855 -18.958 o 272 NIL_272    0.000
3918 H_3635 -0.949 24.225 -16.446 ha 272 NIL_272    0.000
3919 H_3627 -1.316 22.088 -19.937 ha 272 NIL_272    0.000
3920 H_3633 1.380 24.182 -16.600 ha 272 NIL_272    0.000
3921 H_3629 1.047 22.038 -20.123 ha 272 NIL_272    0.000
3922 H_36431 3.448 22.087 -18.256 h1 272 NIL_272    0.000
3923 H_36432 3.323 23.217 -19.601 h1 272 NIL_272    0.000
3924 H_2827 6.202 25.826 -17.104 h1 272 NIL_272    0.000
3925 H_28301 4.264 28.836 -15.667 h1 272 NIL_272    0.000
3926 H_28302 5.993 29.131 -15.436 h1 272 NIL_272    0.000
3927 H_28281 3.672 26.095 -15.494 hc 272 NIL_272    0.000
3928 H_28282 5.089 25.108 -15.135 hc 272 NIL_272    0.000
3929 H_35261 10.511 27.094 -13.648 hc 272 NIL_272    0.000
3930 H_35262 8.931 27.829 -13.346 hc 272 NIL_272    0.000
3931 H_35263 9.689 28.027 -14.912 hc 272 NIL_272    0.000
3932 H_35241 9.475 25.597 -15.388 hc 272 NIL_272    0.000
3933 H_35242 8.764 25.326 -13.791 hc 272 NIL_272    0.000
3934 H_35221 7.572 27.138 -15.946 h1 272 NIL_272    0.000
3935 H_35222 7.003 25.495 -15.558 h1 272 NIL_272    0.000
3936 HH 4.314 23.756 -16.891 hn 272 NIL_272    0.000
3937 N -4.753 23.804 -3.788 n 273 NIL_273    0.000
3938 C_2464 -3.460 24.343 -4.267 c3 273 NIL_273    0.000
3939 C_2463 -3.746 25.666 -5.013 c3 273 NIL_273    0.000
3940 C_2465 -2.869 23.568 -5.542 c3 273 NIL_273    0.000
3941 C_2476 -2.489 24.545 -3.038 c 273 NIL_273    0.000
3942 C_2462 -4.138 25.191 -6.538 c3 273 NIL_273    0.000
3943 N -3.317 24.183 -6.860 n 273 NIL_273    0.000
3944 O -1.385 25.020 -3.217 o 273 NIL_273    0.000
3945 C_2467 -4.361 26.308 -7.529 c 273 NIL_273    0.000
3946 O -4.720 27.429 -7.235 o 273 NIL_273    0.000
3947 H_2462 -5.183 24.743 -6.433 h1 273 NIL_273    0.000
3948 H_24651 -1.778 23.608 -5.501 h1 273 NIL_273    0.000
3949 H_24652 -3.183 22.520 -5.515 h1 273 NIL_273    0.000
3950 H_24631 -2.874 26.278 -5.083 hc 273 NIL_273    0.000
3951 H_24632 -4.551 26.249 -4.517 hc 273 NIL_273    0.000
3952 C_268 -0.886 36.156 18.154 c3 274 NIL_274    0.000
3953 C_267 -0.049 34.960 17.661 c3 274 NIL_274    0.000
3954 C.fa -1.649 35.648 19.396 c3 274 NIL_274    0.000
3955 N 0.239 34.157 18.833 n 274 NIL_274    0.000
3956 C_272 1.192 35.349 16.899 c 274 NIL_274    0.000
3957 C_270 -0.800 34.424 19.845 c3 274 NIL_274    0.000
3958 NH -3.039 35.262 19.098 n 274 NIL_274    0.000
3959 O 1.221 36.321 16.172 o 274 NIL_274    0.000
3960 H_2701 -0.318 34.634 20.802 h1 274 NIL_274    0.000
3961 H_2702 -1.437 33.542 19.948 h1 274 NIL_274    0.000
3962 H.fa -1.655 36.415 20.175 h1 274 NIL_274    0.000
3963 H_267 -0.654 34.346 16.987 h1 274 NIL_274    0.000
3964 H_2681 -1.563 36.530 17.383 hc 274 NIL_274    0.000
3965 H_2682 -0.211 36.959 18.456 hc 274 NIL_274    0.000
3966 HH -3.133 34.347 18.694 hn 274 NIL_274    0.000
3967 C_2530 -5.260 24.072 6.275 c3 275 NIL_275    0.000
3968 C_2531 -5.428 25.566 5.962 c3 275 NIL_275    0.000
3969 C_3500 -6.744 25.812 5.216 c3 275 NIL_275    0.000
3970 H_35001 -6.754 25.262 4.273 hc 275 NIL_275    0.000
3971 H_35002 -6.865 26.876 5.001 hc 275 NIL_275    0.000
3972 H_35003 -7.590 25.479 5.822 hc 275 NIL_275    0.000
3973 H_25311 -4.722 25.894 5.301 hc 275 NIL_275    0.000
3974 H_25312 -5.417 26.138 6.892 hc 275 NIL_275    0.000
3975 H_25301 -6.071 23.748 6.932 h1 275 NIL_275    0.000
3976 H_25302 -5.305 23.497 5.347 h1 275 NIL_275    0.000
3977 C_728 -6.538 34.120 17.034 c3 276 NIL_276    0.000
3978 C_727 -5.636 32.959 17.499 c3 276 NIL_276    0.000
3979 N -5.853 35.366 17.436 n3 276 NIL_276    0.000
3980 C_726 -4.862 33.619 18.667 c3 276 NIL_276    0.000
3981 N -4.745 32.521 16.402 n 276 NIL_276    0.000
3982 C_738 -6.471 31.802 18.030 c 276 NIL_276    0.000
3983 C_725 -5.344 35.088 18.786 c3 276 NIL_276    0.000
3984 O -7.556 31.971 18.547 o 276 NIL_276    0.000
3985 C_729 -4.197 35.961 19.279 c 276 NIL_276    0.000
3986 O -4.278 37.082 19.737 o 276 NIL_276    0.000
3987 H_725 -6.165 35.147 19.506 h1 276 NIL_276    0.000
3988 H_7261 -3.798 33.593 18.441 hc 276 NIL_276    0.000
3989 H_7262 -5.027 33.083 19.604 hc 276 NIL_276    0.000
3990 H_7281 -6.713 34.092 15.956 h1 276 NIL_276    0.000
3991 H_7282 -7.493 34.061 17.561 h1 276 NIL_276    0.000
3992 C_2960 4.942 28.262 1.953 c 277 NIL_277    0.000
3993 C_2956 5.446 27.390 0.739 c3 277 NIL_277    0.000
3994 O 4.133 29.149 1.768 o 277 NIL_277    0.000
3995 C_2955 6.579 28.046 -0.114 c3 277 NIL_277    0.000
3996 C_2957 4.381 27.142 -0.431 c3 277 NIL_277    0.000
3997 N 5.953 26.117 1.305 n 277 NIL_277    0.000
3998 C_2954 6.102 28.232 -1.599 c3 277 NIL_277    0.000
3999 N 4.938 27.414 -1.814 n 277 NIL_277    0.000
4000 C_2959 7.131 28.015 -2.695 c 277 NIL_277    0.000
4001 O 8.312 28.200 -2.484 o 277 NIL_277    0.000
4002 H_2954 5.765 29.265 -1.712 h1 277 NIL_277    0.000
4003 H_29571 4.021 26.112 -0.388 h1 277 NIL_277    0.000
4004 H_29572 3.527 27.807 -0.274 h1 277 NIL_277    0.000
4005 H_29551 7.448 27.384 -0.103 hc 277 NIL_277    0.000
4006 H_29552 6.879 29.003 0.312 hc 277 NIL_277    0.000
4007 N 1.307 22.428 18.082 n 278 NIL_278    0.000
4008 C_3832 1.057 23.685 17.403 c3 278 NIL_278    0.000
4009 C_3835 2.697 22.406 18.570 c3 278 NIL_278    0.000
4010 C_3833 2.442 24.253 17.022 c3 278 NIL_278    0.000
4011 C_3837 0.112 23.512 16.234 c 278 NIL_278    0.000
4012 C_3834 3.476 23.605 17.969 c3 278 NIL_278    0.000
4013 O 0.161 24.221 15.250 o 278 NIL_278    0.000
4014 N 4.631 23.113 17.204 n 278 NIL_278    0.000
4015 C_3841 3.902 24.565 19.074 c 278 NIL_278    0.000
4016 H 4.497 22.246 16.705 hn 278 NIL_278    0.000
4017 O 3.198 24.782 20.039 o 278 NIL_278    0.000
4018 H_38331 2.678 23.956 15.999 hc 278 NIL_278    0.000
4019 H_38332 2.465 25.343 17.086 hc 278 NIL_278    0.000
4020 H_38351 3.171 21.471 18.261 h1 278 NIL_278    0.000
4021 H_38352 2.703 22.476 19.661 h1 278 NIL_278    0.000
4022 H_3832 0.572 24.356 18.116 h1 278 NIL_278    0.000
4023 C_3502 -1.274 27.934 1.314 c3 279 NIL_279    0.000
4024 C_2529 -1.793 27.183 0.080 c3 279 NIL_279    0.000
4025 C_2528 -3.226 26.689 0.324 c3 279 NIL_279    0.000
4026 H_25281 -3.858 27.536 0.600 h1 279 NIL_279    0.000
4027 H_25282 -3.613 26.246 -0.597 h1 279 NIL_279    0.000
4028 H_25291 -1.777 27.852 -0.782 hc 279 NIL_279    0.000
4029 H_25292 -1.124 26.369 -0.134 hc 279 NIL_279    0.000
4030 H_35021 -1.259 27.273 2.182 hc 279 NIL_279    0.000
4031 H_35022 -1.920 28.785 1.538 hc 279 NIL_279    0.000
4032 H_35023 -0.262 28.303 1.139 hc 279 NIL_279    0.000
4033 C_3887 -6.668 29.295 18.124 c3 280 NIL_280    0.000
4034 C_3886 -5.824 28.106 17.593 c3 280 NIL_280    0.000
4035 N -5.969 30.560 17.846 n 280 NIL_280    0.000
4036 C_3885 -4.647 28.810 16.873 c3 280 NIL_280    0.000
4037 N -6.618 27.325 16.632 n 280 NIL_280    0.000
4038 C_3892 -5.342 27.252 18.764 c 280 NIL_280    0.000
4039 C_3884 -4.634 30.278 17.356 c3 280 NIL_280    0.000
4040 H -7.224 27.857 16.025 hn 280 NIL_280    0.000
4041 O -4.979 27.750 19.810 o 280 NIL_280    0.000
4042 C_3888 -4.198 31.284 16.311 c 280 NIL_280    0.000
4043 O -3.464 30.967 15.418 o 280 NIL_280    0.000
4044 H_3884 -3.949 30.374 18.202 h1 280 NIL_280    0.000
4045 H_38851 -4.829 28.792 15.795 hc 280 NIL_280    0.000
4046 H_38852 -3.695 28.314 17.070 hc 280 NIL_280    0.000
4047 H_38871 -7.639 29.310 17.623 h1 280 NIL_280    0.000
4048 H_38872 -6.820 29.197 19.201 h1 280 NIL_280    0.000
4049 C_2292 6.613 29.968 15.312 c3 281 NIL_281    0.000
4050 C_243 5.779 29.529 14.116 c 281 NIL_281    0.000
4051 O 4.605 29.579 14.068 o 281 NIL_281    0.000
4052 H_22921 7.165 29.096 15.673 h1 281 NIL_281    0.000
4053 H_22922 7.320 30.725 14.964 h1 281 NIL_281    0.000
4054 C_2474 -3.181 24.319 0.838 c3 282 NIL_282    0.000
4055 C_2473 -4.479 23.904 0.059 c3 282 NIL_282    0.000
4056 C_2475 -2.174 24.353 -0.408 c3 282 NIL_282    0.000
4057 C_2478 -2.856 23.344 2.040 c 282 NIL_282    0.000
4058 N -3.294 25.688 1.386 n 282 NIL_282    0.000
4059 C_2472 -4.080 23.496 -1.405 c3 282 NIL_282    0.000
4060 N -2.886 24.222 -1.741 n 282 NIL_282    0.000
4061 O -2.435 22.227 1.816 o 282 NIL_282    0.000
4062 C_2477 -5.136 23.557 -2.499 c 282 NIL_282    0.000
4063 O -6.306 23.366 -2.240 o 282 NIL_282    0.000
4064 H_2472 -3.778 22.446 -1.369 h1 282 NIL_282    0.000
4065 H_24751 -1.624 25.254 -0.400 h1 282 NIL_282    0.000
4066 H_24752 -1.475 23.517 -0.324 h1 282 NIL_282    0.000
4067 H_24731 -5.155 24.761 0.018 hc 282 NIL_282    0.000
4068 H_24732 -4.998 23.085 0.564 hc 282 NIL_282    0.000
4069 C_2521 -4.301 26.994 -9.880 c3 283 NIL_283    0.000
4070 C_2522 -3.174 27.132 -10.878 c3 283 NIL_283    0.000
4071 C_3506 -1.849 27.538 -10.114 c3 283 NIL_283    0.000
4072 H_35061 -1.590 26.791 -9.347 hc 283 NIL_283    0.000
4073 H_35062 -2.017 28.486 -9.643 hc 283 NIL_283    0.000
4074 H_35063 -1.018 27.610 -10.814 hc 283 NIL_283    0.000
4075 H_25221 -3.351 27.784 -11.654 hc 283 NIL_283    0.000
4076 H_25222 -3.056 26.186 -11.441 hc 283 NIL_283    0.000
4077 H_25211 -4.442 27.972 -9.415 h1 283 NIL_283    0.000
4078 H_25212 -5.210 26.730 -10.426 h1 283 NIL_283    0.000
4079 C_111 -1.432 20.201 17.069 c3 284 NIL_284    0.000
4080 C_110 -0.915 21.593 17.484 c3 284 NIL_284    0.000
4081 N -2.843 20.114 17.497 n3 284 NIL_284    0.000
4082 C_109 -2.026 22.075 18.458 c3 284 NIL_284    0.000
4083 N -0.746 22.466 16.297 n 284 NIL_284    0.000
4084 C_137 0.392 21.446 18.249 c 284 NIL_284    0.000
4085 C_108 -2.932 20.853 18.763 c3 284 NIL_284    0.000
4086 O 0.625 20.473 18.934 o 284 NIL_284    0.000
4087 C_113 -4.329 21.290 19.198 c 284 NIL_284    0.000
4088 O -5.230 20.564 19.566 o 284 NIL_284    0.000
4089 H_108 -2.490 20.266 19.572 h1 284 NIL_284    0.000
4090 H_1091 -2.616 22.851 17.961 hc 284 NIL_284    0.000
4091 H_1092 -1.605 22.496 19.375 hc 284 NIL_284    0.000
4092 H_1111 -1.338 20.053 15.990 h1 284 NIL_284    0.000
4093 H_1112 -0.857 19.437 17.598 h1 284 NIL_284    0.000
4094 C_2855 4.720 27.272 6.943 c 285 NIL_285    0.000
4095 C_2849 5.635 27.853 5.845 c3 285 NIL_285    0.000
4096 O 3.821 26.522 6.620 o 285 NIL_285    0.000
4097 C_2848 5.795 26.290 5.823 c3 285 NIL_285    0.000
4098 C_2850 4.891 28.523 4.593 c3 285 NIL_285    0.000
4099 N 6.631 28.720 6.529 n 285 NIL_285    0.000
4100 C_2847 5.862 27.221 3.289 c3 285 NIL_285    0.000
4101 N 5.351 27.972 3.243 n 285 NIL_285    0.000
4102 C_2852 6.310 25.790 2.443 c 285 NIL_285    0.000
4103 O 6.910 24.832 2.866 o 285 NIL_285    0.000
4104 H_2847 7.345 27.989 2.942 h1 285 NIL_285    0.000
4105 H_28501 3.821 28.335 4.674 h1 285 NIL_285    0.000
4106 H_28502 5.057 29.605 4.611 h1 285 NIL_285    0.000
4107 H_28481 5.674 25.795 5.145 hc 285 NIL_285    0.000
4108 H_28482 7.256 26.297 5.731 hc 285 NIL_285    0.000
4109 C_3520 5.761 22.943 -8.932 c3 286 NIL_286    0.000
4110 C_3007 4.409 23.443 -9.469 c3 286 NIL_286    0.000
4111 C_3006 4.544 24.871 -10.017 c3 286 NIL_286    0.000
4112 H_30061 5.247 24.882 -10.853 h1 286 NIL_286    0.000
4113 H_30062 3.569 25.216 -10.372 h1 286 NIL_286    0.000
4114 H_30071 4.060 22.773 -10.256 hc 286 NIL_286    0.000
4115 H_30072 3.671 23.430 -8.665 hc 286 NIL_286    0.000
4116 H_35201 6.225 23.589 -8.233 hc 286 NIL_286    0.000
4117 H_35202 6.492 22.872 -9.732 hc 286 NIL_286    0.000
4118 H_35203 5.641 21.959 -8.475 hc 286 NIL_286    0.000
4119 C_262 8.607 28.334 19.435 c 287 NIL_287    0.000
4120 C_257 8.263 29.744 18.979 c3 287 NIL_287    0.000
4121 O 9.688 27.939 19.823 o 287 NIL_287    0.000
4122 N 8.888 30.208 17.737 n3 287 NIL_287    0.000
4123 C_258 6.759 29.817 18.625 c3 287 NIL_287    0.000
4124 C_260 8.037 31.307 17.231 c3 287 NIL_287    0.000
4125 C_259 6.578 30.958 17.599 c3 287 NIL_287    0.000
4126 N 5.800 30.524 16.414 n 287 NIL_287    0.000
4127 C_271 5.927 32.138 18.303 c 287 NIL_287    0.000
4128 O 6.569 32.928 18.965 o 287 NIL_287    0.000
4129 H_2601 8.155 31.434 16.153 h1 287 NIL_287    0.000
4130 H_2602 8.315 32.233 17.740 h1 287 NIL_287    0.000
4131 H_2581 6.454 28.876 18.163 hc 287 NIL_287    0.000
4132 H_2582 6.146 29.978 19.515 hc 287 NIL_287    0.000
4133 H_257 8.485 30.441 19.790 h1 287 NIL_287    0.000
4134 N 6.715 27.582 -3.923 n 288 NIL_288    0.000
4135 C_2946 5.334 27.278 -4.364 c3 288 NIL_288    0.000
4136 C_2945 5.312 25.957 -5.194 c3 288 NIL_288    0.000
4137 C_2947 4.806 28.208 -5.525 c3 288 NIL_288    0.000
4138 C_2958 4.428 27.135 -3.078 c 288 NIL_288    0.000
4139 C_2944 5.722 26.306 -6.660 c3 288 NIL_288    0.000
4140 N 4.850 27.519 -6.871 n 288 NIL_288    0.000
4141 O 3.300 26.695 -3.175 o 288 NIL_288    0.000
4142 C_2949 5.319 25.320 -7.739 c 288 NIL_288    0.000
4143 O 5.140 24.183 -7.429 o 288 NIL_288    0.000
4144 H_2944 6.811 26.388 -6.715 h1 288 NIL_288    0.000
4145 H_29471 3.781 28.341 -5.518 h1 288 NIL_288    0.000
4146 H_29472 4.946 29.641 -4.905 h1 288 NIL_288    0.000
4147 H_29451 4.289 25.574 -5.206 hc 288 NIL_288    0.000
4148 H_29452 5.962 25.195 -4.758 hc 288 NIL_288    0.000
4149 C_1480 -5.333 33.798 5.729 c3 289 NIL_289    0.000
4150 C_1481 -4.974 33.662 4.243 c3 289 NIL_289    0.000
4151 C_3528 -4.327 32.299 3.972 c3 289 NIL_289    0.000
4152 H_35281 -5.015 31.517 4.208 hc 289 NIL_289    0.000
4153 H_35282 -3.538 32.490 4.088 hc 289 NIL_289    0.000
4154 H_35283 -4.120 32.179 2.934 hc 289 NIL_289    0.000
4155 H_14811 -4.373 34.333 4.243 hc 289 NIL_289    0.000
4156 H_14812 -5.873 33.764 3.633 hc 289 NIL_289    0.000
4157 H_14801 -5.762 34.786 5.912 h1 289 NIL_289    0.000
4158 H_14802 -6.076 33.039 5.989 h1 289 NIL_289    0.000
4159 C_2948 5.008 28.121 -8.233 c 290 NIL_290    0.000
4160 C_2937 5.169 27.174 -9.481 c3 290 NIL_290    0.000
4161 O 4.688 29.280 -8.378 o 290 NIL_290    0.000
4162 C_2936 6.523 27.310 -10.259 c3 290 NIL_290    0.000
4163 C_2938 4.171 27.461 -10.696 c3 290 NIL_290    0.000
4164 N 5.026 25.788 -8.986 n 290 NIL_290    0.000
4165 C_2935 6.247 27.702 -11.758 c3 290 NIL_290    0.000
4166 N 4.859 27.454 -12.043 n 290 NIL_290    0.000
4167 C_2939 7.136 27.099 -12.833 c 290 NIL_290    0.000
4168 O 8.255 26.729 -12.560 o 290 NIL_290    0.000
4169 H_2935 6.381 28.784 -11.849 h1 290 NIL_290    0.000
4170 H_29381 3.370 26.718 -10.702 h1 290 NIL_290    0.000
4171 H_29382 3.725 28.449 -10.561 h1 290 NIL_290    0.000
4172 H_29361 7.042 26.349 -10.231 hc 290 NIL_290    0.000
4173 H_29362 7.167 28.053 -9.785 hc 290 NIL_290    0.000
4174 C_1297 0.558 33.637 -17.895 c 291 NIL_291    0.000
4175 C_1292 -0.669 34.125 -16.958 c3 291 NIL_291    0.000
4176 O 0.347 32.819 -18.768 o 291 NIL_291    0.000
4177 NH 1.876 34.130 -17.734 n 291 NIL_291    0.000
4178 N -2.129 33.586 -17.090 n 291 NIL_291    0.000
4179 C_1293 -0.302 33.881 -15.438 c3 291 NIL_291    0.000
4180 C_3668 3.222 33.930 -18.534 c3 291 NIL_291    0.000
4181 C_1295 -2.457 33.011 -15.728 c3 291 NIL_291    0.000
4182 C_1294 -1.588 33.645 -14.573 c3 291 NIL_291    0.000
4183 C_3656 4.014 32.519 -18.381 c2 291 NIL_291    0.000
4184 N -2.152 34.929 -14.098 n 291 NIL_291    0.000
4185 C_1306 -1.308 32.737 -13.318 c 291 NIL_291    0.000
4186 C_3654 5.049 32.155 -19.159 c2 291 NIL_291    0.000
4187 C_3658 3.733 31.565 -17.478 c2 291 NIL_291    0.000
4188 C_3544 -2.060 35.961 -15.127 c3 291 NIL_291    0.000
4189 O -0.621 31.742 -13.430 o 291 NIL_291    0.000
4190 C_3652 5.713 30.978 -19.064 c2 291 NIL_291    0.000
4191 C_3660 4.397 30.388 -17.376 c2 291 NIL_291    0.000
4192 C_3546 -0.612 36.410 -15.361 c3 291 NIL_291    0.000
4193 C_3574 5.422 30.025 -18.164 c2 291 NIL_291    0.000
4194 C_3548 -0.559 37.428 -16.507 c3 291 NIL_291    0.000
4195 C_2831 6.081 28.693 -18.090 c 291 NIL_291    0.000
4196 O 6.872 28.330 -18.937 o 291 NIL_291    0.000
4197 H_35481 -1.140 38.316 -16.251 hc 291 NIL_291    0.000
4198 H_35482 -0.972 36.991 -17.419 hc 291 NIL_291    0.000
4199 H_35483 0.472 37.727 -16.700 hc 291 NIL_291    0.000
4200 H_35461 -0.028 35.649 -15.684 hc 291 NIL_291    0.000
4201 H_35462 -0.211 36.854 -14.447 hc 291 NIL_291    0.000
4202 H_3660 4.064 29.689 -16.630 ha 291 NIL_291    0.000
4203 H_3652 6.521 30.788 -19.766 ha 291 NIL_291    0.000
4204 H_35441 -2.660 36.821 -14.818 h1 291 NIL_291    0.000
4205 H_35442 -2.472 35.562 -16.058 h1 291 NIL_291    0.000
4206 H_3658 2.911 31.745 -16.791 ha 291 NIL_291    0.000
4207 H_3654 5.369 32.853 -19.928 ha 291 NIL_291    0.000
4208 H_12951 -2.242 31.945 -15.752 h1 291 NIL_291    0.000
4209 H_12952 -3.520 33.159 -15.518 h1 291 NIL_291    0.000
4210 H_36681 3.901 34.731 -18.234 h1 291 NIL_291    0.000
4211 H_36682 2.994 34.076 -19.594 h1 291 NIL_291    0.000
4212 H_12931 0.322 32.991 -15.376 hc 291 NIL_291    0.000
4213 H_12932 0.317 34.618 -14.971 hc 291 NIL_291    0.000
4214 H_1292 -0.725 35.207 -17.110 h1 291 NIL_291    0.000
4215 HH 1.979 34.795 -16.982 hn 291 NIL_291    0.000
4216 C_1343 -2.946 33.449 11.869 c3 292 NIL_292    0.000
4217 NH -3.801 33.781 13.019 n 292 NIL_292    0.000
4218 C_1335 -3.369 34.060 10.406 c3 292 NIL_292    0.000
4219 C_1323 -3.194 33.315 8.950 c3 292 NIL_292    0.000
4220 C_1319 -4.347 33.599 7.969 c 292 NIL_292    0.000
4221 NH -1.931 33.454 8.171 n 292 NIL_292    0.000
4222 O -5.461 33.798 8.408 o 292 NIL_292    0.000
4223 H_1323 -3.291 32.245 9.150 h1 292 NIL_292    0.000
4224 H_13351 -4.444 34.234 10.490 hc 292 NIL_292    0.000
4225 H_13352 -2.931 35.058 10.325 hc 292 NIL_292    0.000
4226 H_13431 -2.951 32.360 11.785 h1 292 NIL_292    0.000
4227 H_13432 -1.922 33.756 12.099 h1 292 NIL_292    0.000
4228 HH -1.090 33.440 8.729 hn 292 NIL_292    0.000
4229 HH -4.440 34.558 12.943 hn 292 NIL_292    0.000
4230 N -3.160 24.705 -11.955 n 293 NIL_293    0.000
4231 C_2355 -4.093 23.684 -11.644 c3 293 NIL_293    0.000
4232 C_2358 -2.531 24.998 -10.544 c3 293 NIL_293    0.000
4233 C_2356 -4.648 23.971 -10.202 c3 293 NIL_293    0.000
4234 C_2360 -5.076 23.426 -12.778 c 293 NIL_293    0.000
4235 C_2357 -3.552 24.733 -9.381 c3 293 NIL_293    0.000
4236 O -6.132 22.866 -12.568 o 293 NIL_293    0.000
4237 N -4.081 26.001 -8.829 n 293 NIL_293    0.000
4238 C_2369 -2.989 23.875 -8.179 c 293 NIL_293    0.000
4239 O -2.244 22.943 -8.399 o 293 NIL_293    0.000
4240 H_23561 -5.535 24.606 -10.273 hc 293 NIL_293    0.000
4241 H_23562 -4.931 23.042 -9.702 hc 293 NIL_293    0.000
4242 H_23581 -2.165 26.049 -10.472 h1 293 NIL_293    0.000
4243 H_23582 -1.647 24.474 -10.475 h1 293 NIL_293    0.000
4244 H_2355 -3.496 22.770 -11.583 h1 293 NIL_293    0.000
4245 O 3.826 30.284 15.385 o 294 NIL_294    0.000
4246 C_3865 4.454 30.649 16.307 c 294 NIL_294    0.000
4247 C_3861 3.740 31.346 17.447 c3 294 NIL_294    0.000
4248 N 4.599 32.299 18.120 n 294 NIL_294    0.000
4249 C_3862 2.458 32.114 17.053 c3 294 NIL_294    0.000
4250 C_3864 3.784 33.407 18.632 c3 294 NIL_294    0.000
4251 C_3863 2.404 33.393 17.927 c3 294 NIL_294    0.000
4252 N 2.294 34.591 17.083 n 294 NIL_294    0.000
4253 C_3869 1.290 33.312 18.969 c 294 NIL_294    0.000
4254 H 3.132 34.855 16.588 hn 294 NIL_294    0.000
4255 O 1.366 32.566 19.923 o 294 NIL_294    0.000
4256 H_38641 4.292 34.355 18.438 h1 294 NIL_294    0.000
4257 H_38642 3.650 33.282 19.710 h1 294 NIL_294    0.000
4258 H_38621 2.520 32.400 16.001 hc 294 NIL_294    0.000
4259 H_38622 1.568 31.496 17.194 hc 294 NIL_294    0.000
4260 H_3861 3.485 30.572 18.176 h1 294 NIL_294    0.000
4261 C_2376 -2.659 23.407 9.084 c3 295 NIL_295    0.000
4262 C_2372 -3.965 23.679 8.315 c 295 NIL_295    0.000
4263 NH -1.553 23.759 8.150 n 295 NIL_295    0.000
4264 C_2388 -2.454 24.039 10.586 c3 295 NIL_295    0.000
4265 O -5.009 23.778 8.927 o 295 NIL_295    0.000
4266 C_2396 -3.064 23.526 12.023 c3 295 NIL_295    0.000
4267 NH -2.255 22.645 12.882 n 295 NIL_295    0.000
4268 H_23961 -3.266 24.418 12.620 h1 295 NIL_295    0.000
4269 H_23962 -4.025 23.038 11.843 h1 295 NIL_295    0.000
4270 H_23881 -2.759 25.084 10.497 hc 295 NIL_295    0.000
4271 H_23882 -1.374 24.083 10.741 hc 295 NIL_295    0.000
4272 H_2376 -2.621 22.319 9.188 h1 295 NIL_295    0.000
4273 HH -2.265 21.656 12.679 hn 295 NIL_295    0.000
4274 HH -0.646 23.801 8.591 hn 295 NIL_295    0.000
4275 N -2.886 33.271 2.893 n 296 NIL_296    0.000
4276 C_1312 -3.066 34.517 3.408 c3 296 NIL_296    0.000
4277 C_1315 -2.316 32.691 4.983 c3 296 NIL_296    0.000
4278 C_1313 -2.677 34.811 4.913 c3 296 NIL_296    0.000
4279 C_1317 -2.384 35.275 2.330 c 296 NIL_296    0.000
4280 C_1314 -2.861 33.588 5.802 c3 296 NIL_296    0.000
4281 O -1.927 36.382 2.530 o 296 NIL_296    0.000
4282 N -4.171 33.622 6.599 n 296 NIL_296    0.000
4283 C_1320 -1.751 33.413 6.799 c 296 NIL_296    0.000
4284 O -0.620 33.321 6.369 o 296 NIL_296    0.000
4285 H_13131 -1.613 35.043 4.928 hc 296 NIL_296    0.000
4286 H_13132 -3.218 35.673 5.310 hc 296 NIL_296    0.000
4287 H_13151 -1.946 31.878 4.651 h1 296 NIL_296    0.000
4288 H_13152 -4.504 31.026 5.223 h1 296 NIL_296    0.000
4289 H_1312 -4.114 34.884 3.057 h1 296 NIL_296    0.000
4290 N -1.775 33.096 -12.060 n 297 NIL_297    0.000
4291 C_1302 -2.798 34.086 -11.845 c3 297 NIL_297    0.000
4292 C_1305 -1.530 32.475 -10.705 c3 297 NIL_297    0.000
4293 C_1303 -2.817 34.462 -10.315 c3 297 NIL_297    0.000
4294 C_1307 -2.703 35.205 -12.876 c 297 NIL_297    0.000
4295 C_1304 -1.978 33.420 -9.498 c3 297 NIL_297    0.000
4296 O -3.103 36.324 -12.628 o 297 NIL_297    0.000
4297 N -0.806 34.099 -8.914 n 297 NIL_297    0.000
4298 C_1316 -2.729 32.715 -8.305 c 297 NIL_297    0.000
4299 O -3.436 31.749 -8.507 o 297 NIL_297    0.000
4300 H_13031 -2.380 35.454 -10.175 hc 297 NIL_297    0.000
4301 H_13032 -3.846 34.493 -9.951 hc 297 NIL_297    0.000
4302 H_13051 -0.695 32.334 -10.765 h1 297 NIL_297    0.000
4303 H_13052 -2.099 31.545 -10.658 h1 297 NIL_297    0.000
4304 H_1302 -3.747 33.589 -12.067 h1 297 NIL_297    0.000
4305 N -3.028 23.750 3.363 n 298 NIL_298    0.000
4306 C_2365 -3.597 25.010 3.762 c3 298 NIL_298    0.000
4307 C_2368 -2.786 23.022 4.679 c3 298 NIL_298    0.000
4308 C_2366 -3.002 25.330 5.177 c3 298 NIL_298    0.000
4309 C_2370 -3.470 26.072 2.684 c 298 NIL_298    0.000
4310 C_2367 -2.859 23.986 5.962 c3 298 NIL_298    0.000
4311 O -3.517 27.252 2.965 o 298 NIL_298    0.000
4312 N -3.986 23.803 6.934 n 298 NIL_298    0.000
4313 C_2373 -1.563 23.973 6.787 c 298 NIL_298    0.000
4314 O -0.506 24.183 6.227 o 298 NIL_298    0.000
4315 H_23661 -2.018 25.780 5.052 hc 298 NIL_298    0.000
4316 H_23662 -3.509 26.058 5.765 hc 298 NIL_298    0.000
4317 H_23681 -1.799 22.557 4.636 h1 298 NIL_298    0.000
4318 H_23682 -3.532 22.230 4.784 h1 298 NIL_298    0.000
4319 H_2365 -4.671 24.838 3.877 h1 298 NIL_298    0.000
4320 C_3514 7.580 26.997 4.541 c3 299 NIL_299    0.000
4321 C_3013 7.358 28.709 4.248 c3 299 NIL_299    0.000
4322 C_3012 7.635 29.174 5.571 c3 299 NIL_299    0.000
4323 H_30121 8.618 28.833 5.906 h1 299 NIL_299    0.000
4324 H_30122 7.630 30.267 5.541 h1 299 NIL_299    0.000
4325 H_30131 8.156 28.921 3.485 hc 299 NIL_299    0.000
4326 H_30132 6.434 29.045 3.790 hc 299 NIL_299    0.000
4327 H_35141 8.194 26.656 4.581 hc 299 NIL_299    0.000
4328 H_35142 7.468 26.460 3.198 hc 299 NIL_299    0.000
4329 H_35143 7.035 27.139 4.302 hc 299 NIL_299    0.000
4330 C_1415 -2.881 32.510 -5.656 c3 300 NIL_300    0.000
4331 C_1414 -2.525 33.451 -4.413 c3 300 NIL_300    0.000
4332 N -2.454 33.130 -6.983 n 300 NIL_300    0.000
4333 C_1413 -1.454 34.305 -5.159 c3 300 NIL_300    0.000
4334 N -3.676 34.292 -3.985 n 300 NIL_300    0.000
4335 C_1426 -1.876 32.811 -3.127 c 300 NIL_300    0.000
4336 C_1412 -1.832 34.376 -6.676 c3 300 NIL_300    0.000
4337 O -0.817 32.221 -3.209 o 300 NIL_300    0.000
4338 C_1417 -0.683 34.595 -7.649 c 300 NIL_300    0.000
4339 O 0.339 35.152 -7.305 o 300 NIL_300    0.000
4340 H_1412 -2.532 35.198 -6.835 h1 300 NIL_300    0.000
4341 H_14131 -0.491 33.797 -5.078 hc 300 NIL_300    0.000
4342 H_14132 -1.352 35.296 -4.714 hc 300 NIL_300    0.000
4343 H_14151 -2.301 31.591 -5.577 h1 300 NIL_300    0.000
4344 H_14152 -3.729 32.128 -5.539 h1 300 NIL_300    0.000
4345 C_2285 -1.436 21.976 15.088 c3 301 NIL_301    0.000
4346 C_766 -1.812 23.063 14.094 c 301 NIL_301    0.000
4347 O -1.783 24.241 14.381 o 301 NIL_301    0.000
4348 H_22851 -2.355 21.462 15.378 h1 301 NIL_301    0.000
4349 H_22852 -0.787 21.269 14.562 h1 301 NIL_301    0.000
4350 N -2.453 32.995 -1.877 n 302 NIL_302    0.000
4351 C_1422 -3.842 33.328 -1.694 c3 302 NIL_302    0.000
4352 C_1425 -1.912 32.726 -0.490 c3 302 NIL_302    0.000
4353 C_1423 -4.089 33.677 -0.174 c3 302 NIL_302    0.000
4354 C_1427 -4.296 34.313 -2.765 c 302 NIL_302    0.000
4355 C_1424 -2.796 33.391 0.664 c3 302 NIL_302    0.000
4356 O -5.182 35.116 -2.550 o 302 NIL_302    0.000
4357 C_1428 -2.967 32.512 1.933 c 302 NIL_302    0.000
4358 N -2.232 34.682 1.108 n 302 NIL_302    0.000
4359 O -3.080 31.296 1.856 o 302 NIL_302    0.000
4360 H_14231 -4.362 34.731 -0.078 hc 302 NIL_302    0.000
4361 H_14232 -4.921 33.081 0.209 hc 302 NIL_302    0.000
4362 H_14251 -0.884 33.090 -0.425 h1 302 NIL_302    0.000
4363 H_14252 -1.909 31.643 -0.343 h1 302 NIL_302    0.000
4364 H_1422 -4.400 32.414 -1.908 h1 302 NIL_302    0.000
4365 C_188 -2.423 17.928 18.545 c3 303 NIL_303    0.000
4366 C_112 -3.318 18.726 17.586 c3 303 NIL_303    0.000
4367 H_1121 -3.290 18.274 16.591 h1 303 NIL_303    0.000
4368 H_1122 -4.352 18.714 17.945 h1 303 NIL_303    0.000
4369 H_1881 -2.795 16.907 18.654 hc 303 NIL_303    0.000
4370 H_1882 -2.435 18.397 19.530 hc 303 NIL_303    0.000
4371 H_1883 -1.388 17.891 18.190 hc 303 NIL_303    0.000
4372 N 5.142 25.107 18.984 n 304 NIL_304    0.000
4373 C_133 6.006 25.030 17.819 c3 304 NIL_304    0.000
4374 C_136 5.862 25.815 20.060 c3 304 NIL_304    0.000
4375 C_134 7.447 25.257 18.318 c3 304 NIL_304    0.000
4376 C_138 5.814 23.749 17.048 c 304 NIL_304    0.000
4377 C.fc 7.311 26.125 19.586 c3 304 NIL_304    0.000
4378 O 6.689 23.284 16.346 o 304 NIL_304    0.000
4379 NH 7.489 27.562 19.311 n 304 NIL_304    0.000
4380 H.fc 8.037 25.819 20.343 h1 304 NIL_304    0.000
4381 H_1341 8.065 25.742 17.562 hc 304 NIL_304    0.000
4382 H_1342 7.895 24.297 18.582 hc 304 NIL_304    0.000
4383 H_1361 5.892 25.166 20.940 h1 304 NIL_304    0.000
4384 H_1362 5.336 26.740 20.306 h1 304 NIL_304    0.000
4385 H_133 5.728 25.847 17.148 h1 304 NIL_304    0.000
4386 HH 6.659 28.028 18.977 hn 304 NIL_304    0.000
4387 C_737 -5.275 24.913 19.716 c3 305 NIL_305    0.000
4388 C.fb -5.624 23.500 19.169 c3 305 NIL_305    0.000
4389 N -5.414 25.904 18.630 n 305 NIL_305    0.000
4390 C_735 -6.269 23.826 17.806 c3 305 NIL_305    0.000
4391 NH -4.431 22.642 19.043 n 305 NIL_305    0.000
4392 C_734 -5.694 25.197 17.396 c3 305 NIL_305    0.000
4393 C_739 -6.578 25.985 16.462 c 305 NIL_305    0.000
4394 O -7.252 25.445 15.608 o 305 NIL_305    0.000
4395 H_734 -4.740 25.049 16.880 h1 305 NIL_305    0.000
4396 H_7351 -6.070 23.056 17.057 hc 305 NIL_305    0.000
4397 H_7352 -7.351 23.917 17.936 hc 305 NIL_305    0.000
4398 H.fb -6.346 23.003 19.821 h1 305 NIL_305    0.000
4399 H_7371 -5.970 25.177 20.516 h1 305 NIL_305    0.000
4400 H_7372 -4.252 24.928 20.100 h1 305 NIL_305    0.000
4401 HH -3.599 23.119 18.732 hn 305 NIL_305    0.000
4402 C_2526 -5.750 23.811 -4.857 c3 306 NIL_306    0.000
4403 C_2527 -6.073 25.253 -5.312 c3 306 NIL_306    0.000
4404 C_3504 -7.016 25.224 -6.531 c3 306 NIL_306    0.000
4405 H_35041 -7.198 26.243 -6.881 hc 306 NIL_306    0.000
4406 H_35042 -7.967 24.779 -6.239 hc 306 NIL_306    0.000
4407 H_35043 -6.594 24.642 -7.354 hc 306 NIL_306    0.000
4408 H_25271 -5.226 25.775 -5.598 hc 306 NIL_306    0.000
4409 H_25272 -6.464 25.828 -4.529 hc 306 NIL_306    0.000
4410 H_25261 -6.669 23.359 -4.480 h1 306 NIL_306    0.000
4411 H_25262 -5.378 23.212 -5.695 h1 306 NIL_306    0.000
4412 C_2858 5.735 28.590 8.929 c3 307 NIL_307    0.000
4413 C_2854 6.753 29.046 7.866 c 307 NIL_307    0.000
4414 NH 4.913 27.524 8.291 n 307 NIL_307    0.000
4415 C_2870 6.400 28.377 10.421 c3 307 NIL_307    0.000
4416 O 7.705 29.716 8.210 o 307 NIL_307    0.000
4417 C_2878 5.644 28.553 11.868 c3 307 NIL_307    0.000
4418 NH 6.421 29.043 13.022 n 307 NIL_307    0.000
4419 H_28781 4.830 29.269 11.720 h1 307 NIL_307    0.000
4420 H_28782 5.188 27.599 12.143 h1 307 NIL_307    0.000
4421 H_28701 7.210 29.108 10.455 hc 307 NIL_307    0.000
4422 H_28702 6.896 27.405 10.425 hc 307 NIL_307    0.000
4423 H_2858 5.067 29.450 9.021 h1 307 NIL_307    0.000
4424 HH 7.427 28.961 13.010 hn 307 NIL_307    0.000
4425 HH 4.304 27.031 8.926 hn 307 NIL_307    0.000
4426 C_1478 -1.545 35.360 0.014 c3 308 NIL_308    0.000
4427 C_1479 -2.538 35.941 -1.005 c3 308 NIL_308    0.000
4428 C_3530 -3.424 37.001 -0.336 c3 308 NIL_308    0.000
4429 H_35301 -3.989 36.557 0.487 hc 308 NIL_308    0.000
4430 H_35302 -4.129 37.416 -1.059 hc 308 NIL_308    0.000
4431 H_35303 -2.806 37.811 0.057 hc 308 NIL_308    0.000
4432 H_14791 -3.163 35.144 -1.409 hc 308 NIL_308    0.000
4433 H_14792 -1.992 36.390 -1.836 hc 308 NIL_308    0.000
4434 H_14781 -0.899 34.637 -0.486 h1 308 NIL_308    0.000
4435 H_14782 -0.928 36.162 0.425 h1 308 NIL_308    0.000
4436 C_3010 5.886 25.013 0.349 c3 309 NIL_309    0.000
4437 C_3011 7.027 25.063 -0.679 c3 309 NIL_309    0.000
4438 C_3516 8.384 24.942 0.028 c3 309 NIL_309    0.000
4439 H_35161 8.518 25.763 0.736 hc 309 NIL_309    0.000
4440 H_35162 9.195 24.978 -0.702 hc 309 NIL_309    0.000
4441 H_35163 8.444 23.998 0.574 hc 309 NIL_309    0.000
4442 H_30111 6.984 26.000 -1.237 hc 309 NIL_309    0.000
4443 H_30112 6.912 24.244 -1.392 hc 309 NIL_309    0.000
4444 H_30101 4.926 25.054 -0.166 h1 309 NIL_309    0.000
4445 H_30102 5.947 24.071 0.900 h1 309 NIL_309    0.000
4446 C_1477 -5.182 34.681 -5.933 c3 310 NIL_310    0.000
4447 C_1476 -4.078 35.240 -5.024 c3 310 NIL_310    0.000
4448 C_3532 -4.737 33.388 -6.628 c3 310 NIL_310    0.000
4449 H_35321 -3.893 33.569 -7.205 hc 310 NIL_310    0.000
4450 H_35322 -5.523 33.027 -7.293 hc 310 NIL_310    0.000
4451 H_35323 -4.759 32.746 -5.976 hc 310 NIL_310    0.000
4452 H_14761 -3.206 35.491 -5.627 h1 310 NIL_310    0.000
4453 H_14762 -4.447 36.151 -4.543 h1 310 NIL_310    0.000
4454 H_14771 -5.444 35.431 -6.685 hc 310 NIL_310    0.000
4455 H_14772 -6.069 34.474 -5.330 hc 310 NIL_310    0.000
4456 C_1472 0.880 32.681 -9.999 c3 311 NIL_311    0.000
4457 C_1471 0.317 34.100 -9.844 c3 311 NIL_311    0.000
4458 C_3542 1.925 32.629 -11.120 c3 311 NIL_311    0.000
4459 H_35421 2.276 31.604 -11.256 hc 311 NIL_311    0.000
4460 H_35422 2.780 33.263 -10.873 hc 311 NIL_311    0.000
4461 H_35423 1.492 32.978 -12.060 hc 311 NIL_311    0.000
4462 H_14711 1.094 34.772 -9.473 h1 311 NIL_311    0.000
4463 H_14712 -0.036 34.461 -10.813 h1 311 NIL_311    0.000
4464 H_14721 0.285 31.895 -10.082 hc 311 NIL_311    0.000
4465 H_14722 1.319 32.352 -9.058 hc 311 NIL_311    0.000
4466 C_660 10.290 30.616 17.915 c3 312 NIL_312    0.000
4467 C_662 10.370 31.830 18.853 c3 312 NIL_312    0.000
4468 H_6621 9.785 32.660 18.452 hc 312 NIL_312    0.000
4469 H_6622 11.402 32.166 18.958 hc 312 NIL_312    0.000
4470 H_6623 9.985 31.571 19.840 hc 312 NIL_312    0.000
4471 H_6601 10.714 30.884 16.943 h1 312 NIL_312    0.000
4472 H_6602 10.866 29.784 18.332 h1 312 NIL_312    0.000
4473 C_3009 7.712 28.542 -5.971 c3 313 NIL_313    0.000
4474 C_3008 7.685 27.362 -4.990 c3 313 NIL_313    0.000
4475 C_3518 6.367 28.745 -6.623 c3 313 NIL_313    0.000
4476 H_35181 6.027 28.524 -6.444 hc 313 NIL_313    0.000
4477 H_35182 6.359 27.892 -7.237 hc 313 NIL_313    0.000
4478 H_35183 6.344 29.564 -7.315 hc 313 NIL_313    0.000
4479 H_30081 7.424 26.445 -5.519 h1 313 NIL_313    0.000
4480 H_30082 8.674 27.235 -4.541 h1 313 NIL_313    0.000
4481 H_30091 8.459 28.360 -6.747 hc 313 NIL_313    0.000
4482 H_30092 7.992 29.455 -5.442 hc 313 NIL_313    0.000
4483 C_2299 -4.632 33.497 15.307 c3 314 NIL_314    0.000
4484 C_309 -3.728 33.068 14.169 c 314 NIL_314    0.000
4485 O -2.956 32.150 14.253 o 314 NIL_314    0.000
4486 H_22991 -4.265 34.391 15.584 h1 314 NIL_314    0.000
4487 H_22992 -5.622 33.616 14.883 h1 314 NIL_314    0.000
4488 C_769 -4.729 35.626 16.534 c3 315 NIL_315    0.000
4489 C_770 -5.236 35.733 15.079 c3 315 NIL_315    0.000
4490 H_7701 -5.701 34.848 14.759 hc 315 NIL_315    0.000
4491 H_7702 -4.406 35.951 14.403 hc 315 NIL_315    0.000
4492 H_7703 -5.975 36.527 15.002 hc 315 NIL_315    0.000
4493 H_7691 -3.987 34.825 16.696 h1 315 NIL_315    0.000
4494 H_7692 -4.215 36.536 16.814 h1 315 NIL_315    0.000
4495 C_3691 27.384 31.071 -19.171 c2 316 NIL_316    0.000
4496 C_3689 28.071 32.236 -19.078 c2 316 NIL_316    0.000
4497 C_3693 27.571 30.006 -18.372 c2 316 NIL_316    0.000
4498 C_3585 29.024 32.468 -18.166 c2 316 NIL_316    0.000
4499 C_3695 28.523 30.248 -17.458 c2 316 NIL_316    0.000
4500 C_3705 26.747 28.616 -18.511 c3 316 NIL_316    0.000
4501 C_1296 29.855 33.699 -18.090 c 316 NIL_316    0.000
4502 C_3697 29.210 31.410 -17.360 c2 316 NIL_316    0.000
4503 NH 27.290 27.392 -17.681 n 316 NIL_316    0.000
4504 O 29.785 34.574 -18.930 o 316 NIL_316    0.000
4505 C_2350 28.334 26.458 -17.888 c 316 NIL_316    0.000
4506 C_2345 28.615 25.224 -16.891 c3 316 NIL_316    0.000
4507 O 29.056 26.591 -18.855 o 316 NIL_316    0.000
4508 N 29.700 24.143 -17.016 n 316 NIL_316    0.000
4509 C_2346 28.812 25.789 -15.396 c3 316 NIL_316    0.000
4510 C_2348 30.258 23.973 -15.617 c3 316 NIL_316    0.000
4511 C_2347 29.375 24.653 -14.493 c3 316 NIL_316    0.000
4512 N 28.249 23.806 -14.050 n 316 NIL_316    0.000
4513 C_2359 30.171 25.159 -13.228 c 316 NIL_316    0.000
4514 C_3508 27.359 23.509 -15.168 c3 316 NIL_316    0.000
4515 O 31.078 25.954 -13.366 o 316 NIL_316    0.000
4516 C_3510 26.637 24.768 -15.675 c3 316 NIL_316    0.000
4517 C_3512 25.812 25.415 -14.576 c3 316 NIL_316    0.000
4518 H_35121 25.076 24.706 -14.193 hc 316 NIL_316    0.000
4519 H_35122 25.287 26.292 -14.962 hc 316 NIL_316    0.000
4520 H_35123 26.458 25.730 -13.754 hc 316 NIL_316    0.000
4521 H_35101 26.005 24.504 -16.528 hc 316 NIL_316    0.000
4522 H_35102 27.332 25.507 -16.017 hc 316 NIL_316    0.000
4523 H_35081 26.616 22.777 -14.844 h1 316 NIL_316    0.000
4524 H_35082 27.952 23.072 -15.975 h1 316 NIL_316    0.000
4525 H_23481 31.217 24.442 -15.570 h1 316 NIL_316    0.000
4526 H_23482 30.372 22.908 -15.400 h1 316 NIL_316    0.000
4527 H_23461 29.519 26.602 -15.446 hc 316 NIL_316    0.000
4528 H_23462 27.870 26.191 -14.982 hc 316 NIL_316    0.000
4529 H_2345 27.653 24.662 -16.908 h1 316 NIL_316    0.000
4530 H_3697 29.960 31.476 -16.609 ha 316 NIL_316    0.000
4531 H_37051 25.714 28.793 -18.202 h1 316 NIL_316    0.000
4532 H_37052 26.731 28.321 -19.564 h1 316 NIL_316    0.000
4533 H_3695 28.766 29.454 -16.756 ha 316 NIL_316    0.000
4534 H_3689 27.845 33.023 -19.795 ha 316 NIL_316    0.000
4535 H_3691 26.634 30.987 -19.952 ha 316 NIL_316    0.000
4536 HH 26.745 27.223 -16.848 hn 316 NIL_316    0.000
4537 C_3522 40.477 26.392 -15.152 c3 317 NIL_317    0.000
4538 N 39.635 26.939 -14.095 n 317 NIL_317    0.000
4539 C_3524 41.865 26.048 -14.604 c3 317 NIL_317    0.000
4540 C_2829 38.268 27.233 -14.579 c3 317 NIL_317    0.000
4541 C_3526 42.542 27.327 -14.091 c3 317 NIL_317    0.000
4542 C_2828 37.763 26.081 -15.505 c3 317 NIL_317    0.000
4543 C_2830 38.247 28.370 -15.683 c3 317 NIL_317    0.000
4544 C_2841 37.333 27.428 -13.328 c 317 NIL_317    0.000
4545 C_2827 38.230 26.312 -16.991 c3 317 NIL_317    0.000
4546 N 38.503 27.846 -17.087 n 317 NIL_317    0.000
4547 O 36.130 27.494 -13.477 o 317 NIL_317    0.000
4548 C_2832 37.239 25.497 -17.970 c 317 NIL_317    0.000
4549 O 36.768 26.052 -18.942 o 317 NIL_317    0.000
4550 NH 36.908 24.142 -17.731 n 317 NIL_317    0.000
4551 C_3643 36.084 23.076 -18.544 c3 317 NIL_317    0.000
4552 C_3631 34.466 23.103 -18.382 c2 317 NIL_317    0.000
4553 C_3629 33.618 22.539 -19.259 c2 317 NIL_317    0.000
4554 C_3633 33.799 23.686 -17.373 c2 317 NIL_317    0.000
4555 C_3627 32.266 22.561 -19.151 c2 317 NIL_317    0.000
4556 C_3635 32.447 23.712 -17.263 c2 317 NIL_317    0.000
4557 C_2378 31.606 23.154 -18.147 c2 317 NIL_317    0.000
4558 C_2349 30.121 23.268 -18.067 c 317 NIL_317    0.000
4559 O 29.409 22.855 -18.958 o 317 NIL_317    0.000
4560 H_3635 32.051 24.225 -16.446 ha 317 NIL_317    0.000
4561 H_3627 31.684 22.088 -19.937 ha 317 NIL_317    0.000
4562 H_3633 34.380 24.182 -16.600 ha 317 NIL_317    0.000
4563 H_3629 34.047 22.038 -20.123 ha 317 NIL_317    0.000
4564 H_36431 36.448 22.087 -18.256 h1 317 NIL_317    0.000
4565 H_36432 36.323 23.217 -19.601 h1 317 NIL_317    0.000
4566 H_2827 39.202 25.826 -17.104 h1 317 NIL_317    0.000
4567 H_28301 37.264 28.836 -15.667 h1 317 NIL_317    0.000
4568 H_28302 38.993 29.131 -15.436 h1 317 NIL_317    0.000
4569 H_28281 36.672 26.095 -15.494 hc 317 NIL_317    0.000
4570 H_28282 38.089 25.108 -15.135 hc 317 NIL_317    0.000
4571 H_35261 43.511 27.094 -13.648 hc 317 NIL_317    0.000
4572 H_35262 41.931 27.829 -13.346 hc 317 NIL_317    0.000
4573 H_35263 42.689 28.027 -14.912 hc 317 NIL_317    0.000
4574 H_35241 42.475 25.597 -15.388 hc 317 NIL_317    0.000
4575 H_35242 41.764 25.326 -13.791 hc 317 NIL_317    0.000
4576 H_35221 40.572 27.138 -15.946 h1 317 NIL_317    0.000
4577 H_35222 40.003 25.495 -15.558 h1 317 NIL_317    0.000
4578 HH 37.314 23.756 -16.891 hn 317 NIL_317    0.000
4579 N 28.247 23.804 -3.788 n 318 NIL_318    0.000
4580 C_2464 29.540 24.343 -4.267 c3 318 NIL_318    0.000
4581 C_2463 29.254 25.666 -5.013 c3 318 NIL_318    0.000
4582 C_2465 30.131 23.568 -5.542 c3 318 NIL_318    0.000
4583 C_2476 30.511 24.545 -3.038 c 318 NIL_318    0.000
4584 C_2462 28.862 25.191 -6.538 c3 318 NIL_318    0.000
4585 N 29.683 24.183 -6.860 n 318 NIL_318    0.000
4586 O 31.615 25.020 -3.217 o 318 NIL_318    0.000
4587 C_2467 28.639 26.308 -7.529 c 318 NIL_318    0.000
4588 O 28.280 27.429 -7.235 o 318 NIL_318    0.000
4589 H_2462 27.817 24.743 -6.433 h1 318 NIL_318    0.000
4590 H_24651 31.222 23.608 -5.501 h1 318 NIL_318    0.000
4591 H_24652 29.817 22.520 -5.515 h1 318 NIL_318    0.000
4592 H_24631 30.126 26.278 -5.083 hc 318 NIL_318    0.000
4593 H_24632 28.449 26.249 -4.517 hc 318 NIL_318    0.000
4594 C_268 32.114 36.156 18.154 c3 319 NIL_319    0.000
4595 C_267 32.951 34.960 17.661 c3 319 NIL_319    0.000
4596 C.fa 31.351 35.648 19.396 c3 319 NIL_319    0.000
4597 N 33.239 34.157 18.833 n 319 NIL_319    0.000
4598 C_272 34.192 35.349 16.899 c 319 NIL_319    0.000
4599 C_270 32.200 34.424 19.845 c3 319 NIL_319    0.000
4600 NH 29.961 35.262 19.098 n 319 NIL_319    0.000
4601 O 34.221 36.321 16.172 o 319 NIL_319    0.000
4602 H_2701 32.682 34.634 20.802 h1 319 NIL_319    0.000
4603 H_2702 31.563 33.542 19.948 h1 319 NIL_319    0.000
4604 H.fa 31.345 36.415 20.175 h1 319 NIL_319    0.000
4605 H_267 32.346 34.346 16.987 h1 319 NIL_319    0.000
4606 H_2681 31.437 36.530 17.383 hc 319 NIL_319    0.000
4607 H_2682 32.789 36.959 18.456 hc 319 NIL_319    0.000
4608 HH 29.867 34.347 18.694 hn 319 NIL_319    0.000
4609 C_2530 27.740 24.072 6.275 c3 320 NIL_320    0.000
4610 C_2531 27.572 25.566 5.962 c3 320 NIL_320    0.000
4611 C_3500 26.256 25.812 5.216 c3 320 NIL_320    0.000
4612 H_35001 26.246 25.262 4.273 hc 320 NIL_320    0.000
4613 H_35002 26.135 26.876 5.001 hc 320 NIL_320    0.000
4614 H_35003 25.410 25.479 5.822 hc 320 NIL_320    0.000
4615 H_25311 28.278 25.894 5.301 hc 320 NIL_320    0.000
4616 H_25312 27.583 26.138 6.892 hc 320 NIL_320    0.000
4617 H_25301 26.929 23.748 6.932 h1 320 NIL_320    0.000
4618 H_25302 27.695 23.497 5.347 h1 320 NIL_320    0.000
4619 C_728 26.462 34.120 17.034 c3 321 NIL_321    0.000
4620 C_727 27.364 32.959 17.499 c3 321 NIL_321    0.000
4621 N 27.147 35.366 17.436 n3 321 NIL_321    0.000
4622 C_726 28.138 33.619 18.667 c3 321 NIL_321    0.000
4623 N 28.255 32.521 16.402 n 321 NIL_321    0.000
4624 C_738 26.529 31.802 18.030 c 321 NIL_321    0.000
4625 C_725 27.656 35.088 18.786 c3 321 NIL_321    0.000
4626 O 25.444 31.971 18.547 o 321 NIL_321    0.000
4627 C_729 28.803 35.961 19.279 c 321 NIL_321    0.000
4628 O 28.722 37.082 19.737 o 321 NIL_321    0.000
4629 H_725 26.835 35.147 19.506 h1 321 NIL_321    0.000
4630 H_7261 29.202 33.593 18.441 hc 321 NIL_321    0.000
4631 H_7262 27.973 33.083 19.604 hc 321 NIL_321    0.000
4632 H_7281 26.287 34.092 15.956 h1 321 NIL_321    0.000
4633 H_7282 25.507 34.061 17.561 h1 321 NIL_321    0.000
4634 C_2960 37.942 28.262 1.953 c 322 NIL_322    0.000
4635 C_2956 38.446 27.390 0.739 c3 322 NIL_322    0.000
4636 O 37.133 29.149 1.768 o 322 NIL_322    0.000
4637 C_2955 39.579 28.046 -0.114 c3 322 NIL_322    0.000
4638 C_2957 37.381 27.142 -0.431 c3 322 NIL_322    0.000
4639 N 38.953 26.117 1.305 n 322 NIL_322    0.000
4640 C_2954 39.102 28.232 -1.599 c3 322 NIL_322    0.000
4641 N 37.938 27.414 -1.814 n 322 NIL_322    0.000
4642 C_2959 40.131 28.015 -2.695 c 322 NIL_322    0.000
4643 O 41.312 28.200 -2.484 o 322 NIL_322    0.000
4644 H_2954 38.765 29.265 -1.712 h1 322 NIL_322    0.000
4645 H_29571 37.021 26.112 -0.388 h1 322 NIL_322    0.000
4646 H_29572 36.527 27.807 -0.274 h1 322 NIL_322    0.000
4647 H_29551 40.448 27.384 -0.103 hc 322 NIL_322    0.000
4648 H_29552 39.879 29.003 0.312 hc 322 NIL_322    0.000
4649 N 34.307 22.428 18.082 n 323 NIL_323    0.000
4650 C_3832 34.057 23.685 17.403 c3 323 NIL_323    0.000
4651 C_3835 35.697 22.406 18.570 c3 323 NIL_323    0.000
4652 C_3833 35.442 24.253 17.022 c3 323 NIL_323    0.000
4653 C_3837 33.112 23.512 16.234 c 323 NIL_323    0.000
4654 C_3834 36.476 23.605 17.969 c3 323 NIL_323    0.000
4655 O 33.161 24.221 15.250 o 323 NIL_323    0.000
4656 N 37.631 23.113 17.204 n 323 NIL_323    0.000
4657 C_3841 36.902 24.565 19.074 c 323 NIL_323    0.000
4658 H 37.497 22.246 16.705 hn 323 NIL_323    0.000
4659 O 36.198 24.782 20.039 o 323 NIL_323    0.000
4660 H_38331 35.678 23.956 15.999 hc 323 NIL_323    0.000
4661 H_38332 35.465 25.343 17.086 hc 323 NIL_323    0.000
4662 H_38351 36.171 21.471 18.261 h1 323 NIL_323    0.000
4663 H_38352 35.703 22.476 19.661 h1 323 NIL_323    0.000
4664 H_3832 33.572 24.356 18.116 h1 323 NIL_323    0.000
4665 C_3502 31.726 27.934 1.314 c3 324 NIL_324    0.000
4666 C_2529 31.207 27.183 0.080 c3 324 NIL_324    0.000
4667 C_2528 29.774 26.689 0.324 c3 324 NIL_324    0.000
4668 H_25281 29.142 27.536 0.600 h1 324 NIL_324    0.000
4669 H_25282 29.387 26.246 -0.597 h1 324 NIL_324    0.000
4670 H_25291 31.223 27.852 -0.782 hc 324 NIL_324    0.000
4671 H_25292 31.876 26.369 -0.134 hc 324 NIL_324    0.000
4672 H_35021 31.741 27.273 2.182 hc 324 NIL_324    0.000
4673 H_35022 31.080 28.785 1.538 hc 324 NIL_324    0.000
4674 H_35023 32.738 28.303 1.139 hc 324 NIL_324    0.000
4675 C_3887 26.332 29.295 18.124 c3 325 NIL_325    0.000
4676 C_3886 27.176 28.106 17.593 c3 325 NIL_325    0.000
4677 N 27.031 30.560 17.846 n 325 NIL_325    0.000
4678 C_3885 28.353 28.810 16.873 c3 325 NIL_325    0.000
4679 N 26.382 27.325 16.632 n 325 NIL_325    0.000
4680 C_3892 27.658 27.252 18.764 c 325 NIL_325    0.000
4681 C_3884 28.366 30.278 17.356 c3 325 NIL_325    0.000
4682 H 25.776 27.857 16.025 hn 325 NIL_325    0.000
4683 O 28.021 27.750 19.810 o 325 NIL_325    0.000
4684 C_3888 28.802 31.284 16.311 c 325 NIL_325    0.000
4685 O 29.536 30.967 15.418 o 325 NIL_325    0.000
4686 H_3884 29.051 30.374 18.202 h1 325 NIL_325    0.000
4687 H_38851 28.171 28.792 15.795 hc 325 NIL_325    0.000
4688 H_38852 29.305 28.314 17.070 hc 325 NIL_325    0.000
4689 H_38871 25.361 29.310 17.623 h1 325 NIL_325    0.000
4690 H_38872 26.180 29.197 19.201 h1 325 NIL_325    0.000
4691 C_2292 39.613 29.968 15.312 c3 326 NIL_326    0.000
4692 C_243 38.779 29.529 14.116 c 326 NIL_326    0.000
4693 O 37.605 29.579 14.068 o 326 NIL_326    0.000
4694 H_22921 40.165 29.096 15.673 h1 326 NIL_326    0.000
4695 H_22922 40.320 30.725 14.964 h1 326 NIL_326    0.000
4696 C_2474 29.819 24.319 0.838 c3 327 NIL_327    0.000
4697 C_2473 28.521 23.904 0.059 c3 327 NIL_327    0.000
4698 C_2475 30.826 24.353 -0.408 c3 327 NIL_327    0.000
4699 C_2478 30.144 23.344 2.040 c 327 NIL_327    0.000
4700 N 29.706 25.688 1.386 n 327 NIL_327    0.000
4701 C_2472 28.920 23.496 -1.405 c3 327 NIL_327    0.000
4702 N 30.114 24.222 -1.741 n 327 NIL_327    0.000
4703 O 30.565 22.227 1.816 o 327 NIL_327    0.000
4704 C_2477 27.864 23.557 -2.499 c 327 NIL_327    0.000
4705 O 26.694 23.366 -2.240 o 327 NIL_327    0.000
4706 H_2472 29.222 22.446 -1.369 h1 327 NIL_327    0.000
4707 H_24751 31.376 25.254 -0.400 h1 327 NIL_327    0.000
4708 H_24752 31.525 23.517 -0.324 h1 327 NIL_327    0.000
4709 H_24731 27.845 24.761 0.018 hc 327 NIL_327    0.000
4710 H_24732 28.002 23.085 0.564 hc 327 NIL_327    0.000
4711 C_2521 28.699 26.994 -9.880 c3 328 NIL_328    0.000
4712 C_2522 29.826 27.132 -10.878 c3 328 NIL_328    0.000
4713 C_3506 31.151 27.538 -10.114 c3 328 NIL_328    0.000
4714 H_35061 31.410 26.791 -9.347 hc 328 NIL_328    0.000
4715 H_35062 30.983 28.486 -9.643 hc 328 NIL_328    0.000
4716 H_35063 31.982 27.610 -10.814 hc 328 NIL_328    0.000
4717 H_25221 29.649 27.784 -11.654 hc 328 NIL_328    0.000
4718 H_25222 29.944 26.186 -11.441 hc 328 NIL_328    0.000
4719 H_25211 28.558 27.972 -9.415 h1 328 NIL_328    0.000
4720 H_25212 27.790 26.730 -10.426 h1 328 NIL_328    0.000
4721 C_111 31.568 20.201 17.069 c3 329 NIL_329    0.000
4722 C_110 32.085 21.593 17.484 c3 329 NIL_329    0.000
4723 N 30.157 20.114 17.497 n3 329 NIL_329    0.000
4724 C_109 30.974 22.075 18.458 c3 329 NIL_329    0.000
4725 N 32.254 22.466 16.297 n 329 NIL_329    0.000
4726 C_137 33.392 21.446 18.249 c 329 NIL_329    0.000
4727 C_108 30.068 20.853 18.763 c3 329 NIL_329    0.000
4728 O 33.625 20.473 18.934 o 329 NIL_329    0.000
4729 C_113 28.671 21.290 19.198 c 329 NIL_329    0.000
4730 O 27.770 20.564 19.566 o 329 NIL_329    0.000
4731 H_108 30.510 20.266 19.572 h1 329 NIL_329    0.000
4732 H_1091 30.384 22.851 17.961 hc 329 NIL_329    0.000
4733 H_1092 31.395 22.496 19.375 hc 329 NIL_329    0.000
4734 H_1111 31.662 20.053 15.990 h1 329 NIL_329    0.000
4735 H_1112 32.143 19.437 17.598 h1 329 NIL_329    0.000
4736 C_2855 37.720 27.272 6.943 c 330 NIL_330    0.000
4737 C_2849 38.635 27.853 5.845 c3 330 NIL_330    0.000
4738 O 36.821 26.522 6.620 o 330 NIL_330    0.000
4739 C_2848 38.795 26.290 5.823 c3 330 NIL_330    0.000
4740 C_2850 37.891 28.523 4.593 c3 330 NIL_330    0.000
4741 N 39.631 28.720 6.529 n 330 NIL_330    0.000
4742 C_2847 38.862 27.221 3.289 c3 330 NIL_330    0.000
4743 N 38.351 27.972 3.243 n 330 NIL_330    0.000
4744 C_2852 39.310 25.790 2.443 c 330 NIL_330    0.000
4745 O 39.910 24.832 2.866 o 330 NIL_330    0.000
4746 H_2847 40.345 27.989 2.942 h1 330 NIL_330    0.000
4747 H_28501 36.821 28.335 4.674 h1 330 NIL_330    0.000
4748 H_28502 38.057 29.605 4.611 h1 330 NIL_330    0.000
4749 H_28481 38.674 25.795 5.145 hc 330 NIL_330    0.000
4750 H_28482 40.256 26.297 5.731 hc 330 NIL_330    0.000
4751 C_3520 38.761 22.943 -8.932 c3 331 NIL_331    0.000
4752 C_3007 37.409 23.443 -9.469 c3 331 NIL_331    0.000
4753 C_3006 37.544 24.871 -10.017 c3 331 NIL_331    0.000
4754 H_30061 38.247 24.882 -10.853 h1 331 NIL_331    0.000
4755 H_30062 36.569 25.216 -10.372 h1 331 NIL_331    0.000
4756 H_30071 37.060 22.773 -10.256 hc 331 NIL_331    0.000
4757 H_30072 36.671 23.430 -8.665 hc 331 NIL_331    0.000
4758 H_35201 39.225 23.589 -8.233 hc 331 NIL_331    0.000
4759 H_35202 39.492 22.872 -9.732 hc 331 NIL_331    0.000
4760 H_35203 38.641 21.959 -8.475 hc 331 NIL_331    0.000
4761 C_262 41.607 28.334 19.435 c 332 NIL_332    0.000
4762 C_257 41.263 29.744 18.979 c3 332 NIL_332    0.000
4763 O 42.688 27.939 19.823 o 332 NIL_332    0.000
4764 N 41.888 30.208 17.737 n3 332 NIL_332    0.000
4765 C_258 39.759 29.817 18.625 c3 332 NIL_332    0.000
4766 C_260 41.037 31.307 17.231 c3 332 NIL_332    0.000
4767 C_259 39.578 30.958 17.599 c3 332 NIL_332    0.000
4768 N 38.800 30.524 16.414 n 332 NIL_332    0.000
4769 C_271 38.927 32.138 18.303 c 332 NIL_332    0.000
4770 O 39.569 32.928 18.965 o 332 NIL_332    0.000
4771 H_2601 41.155 31.434 16.153 h1 332 NIL_332    0.000
4772 H_2602 41.315 32.233 17.740 h1 332 NIL_332    0.000
4773 H_2581 39.454 28.876 18.163 hc 332 NIL_332    0.000
4774 H_2582 39.146 29.978 19.515 hc 332 NIL_332    0.000
4775 H_257 41.485 30.441 19.790 h1 332 NIL_332    0.000
4776 N 39.715 27.582 -3.923 n 333 NIL_333    0.000
4777 C_2946 38.334 27.278 -4.364 c3 333 NIL_333    0.000
4778 C_2945 38.312 25.957 -5.194 c3 333 NIL_333    0.000
4779 C_2947 37.806 28.208 -5.525 c3 333 NIL_333    0.000
4780 C_2958 37.428 27.135 -3.078 c 333 NIL_333    0.000
4781 C_2944 38.722 26.306 -6.660 c3 333 NIL_333    0.000
4782 N 37.850 27.519 -6.871 n 333 NIL_333    0.000
4783 O 36.300 26.695 -3.175 o 333 NIL_333    0.000
4784 C_2949 38.319 25.320 -7.739 c 333 NIL_333    0.000
4785 O 38.140 24.183 -7.429 o 333 NIL_333    0.000
4786 H_2944 39.811 26.388 -6.715 h1 333 NIL_333    0.000
4787 H_29471 36.781 28.341 -5.518 h1 333 NIL_333    0.000
4788 H_29472 37.946 29.641 -4.905 h1 333 NIL_333    0.000
4789 H_29451 37.289 25.574 -5.206 hc 333 NIL_333    0.000
4790 H_29452 38.962 25.195 -4.758 hc 333 NIL_333    0.000
4791 C_1480 27.667 33.798 5.729 c3 334 NIL_334    0.000
4792 C_1481 28.026 33.662 4.243 c3 334 NIL_334    0.000
4793 C_3528 28.673 32.299 3.972 c3 334 NIL_334    0.000
4794 H_35281 27.985 31.517 4.208 hc 334 NIL_334    0.000
4795 H_35282 29.462 32.490 4.088 hc 334 NIL_334    0.000
4796 H_35283 28.880 32.179 2.934 hc 334 NIL_334    0.000
4797 H_14811 28.627 34.333 4.243 hc 334 NIL_334    0.000
4798 H_14812 27.127 33.764 3.633 hc 334 NIL_334    0.000
4799 H_14801 27.238 34.786 5.912 h1 334 NIL_334    0.000
4800 H_14802 26.924 33.039 5.989 h1 334 NIL_334    0.000
4801 C_2948 38.008 28.121 -8.233 c 335 NIL_335    0.000
4802 C_2937 38.169 27.174 -9.481 c3 335 NIL_335    0.000
4803 O 37.688 29.280 -8.378 o 335 NIL_335    0.000
4804 C_2936 39.523 27.310 -10.259 c3 335 NIL_335    0.000
4805 C_2938 37.171 27.461 -10.696 c3 335 NIL_335    0.000
4806 N 38.026 25.788 -8.986 n 335 NIL_335    0.000
4807 C_2935 39.247 27.702 -11.758 c3 335 NIL_335    0.000
4808 N 37.859 27.454 -12.043 n 335 NIL_335    0.000
4809 C_2939 40.136 27.099 -12.833 c 335 NIL_335    0.000
4810 O 41.255 26.729 -12.560 o 335 NIL_335    0.000
4811 H_2935 39.381 28.784 -11.849 h1 335 NIL_335    0.000
4812 H_29381 36.370 26.718 -10.702 h1 335 NIL_335    0.000
4813 H_29382 36.725 28.449 -10.561 h1 335 NIL_335    0.000
4814 H_29361 40.042 26.349 -10.231 hc 335 NIL_335    0.000
4815 H_29362 40.167 28.053 -9.785 hc 335 NIL_335    0.000
4816 C_1297 33.558 33.637 -17.895 c 336 NIL_336    0.000
4817 C_1292 32.331 34.125 -16.958 c3 336 NIL_336    0.000
4818 O 33.347 32.819 -18.768 o 336 NIL_336    0.000
4819 NH 34.876 34.130 -17.734 n 336 NIL_336    0.000
4820 N 30.871 33.586 -17.090 n 336 NIL_336    0.000
4821 C_1293 32.698 33.881 -15.438 c3 336 NIL_336    0.000
4822 C_3668 36.222 33.930 -18.534 c3 336 NIL_336    0.000
4823 C_1295 30.543 33.011 -15.728 c3 336 NIL_336    0.000
4824 C_1294 31.412 33.645 -14.573 c3 336 NIL_336    0.000
4825 C_3656 37.014 32.519 -18.381 c2 336 NIL_336    0.000
4826 N 30.848 34.929 -14.098 n 336 NIL_336    0.000
4827 C_1306 31.692 32.737 -13.318 c 336 NIL_336    0.000
4828 C_3654 38.049 32.155 -19.159 c2 336 NIL_336    0.000
4829 C_3658 36.733 31.565 -17.478 c2 336 NIL_336    0.000
4830 C_3544 30.940 35.961 -15.127 c3 336 NIL_336    0.000
4831 O 32.379 31.742 -13.430 o 336 NIL_336    0.000
4832 C_3652 38.713 30.978 -19.064 c2 336 NIL_336    0.000
4833 C_3660 37.397 30.388 -17.376 c2 336 NIL_336    0.000
4834 C_3546 32.388 36.410 -15.361 c3 336 NIL_336    0.000
4835 C_3574 38.422 30.025 -18.164 c2 336 NIL_336    0.000
4836 C_3548 32.441 37.428 -16.507 c3 336 NIL_336    0.000
4837 C_2831 39.081 28.693 -18.090 c 336 NIL_336    0.000
4838 O 39.872 28.330 -18.937 o 336 NIL_336    0.000
4839 H_35481 31.860 38.316 -16.251 hc 336 NIL_336    0.000
4840 H_35482 32.028 36.991 -17.419 hc 336 NIL_336    0.000
4841 H_35483 33.472 37.727 -16.700 hc 336 NIL_336    0.000
4842 H_35461 32.972 35.649 -15.684 hc 336 NIL_336    0.000
4843 H_35462 32.789 36.854 -14.447 hc 336 NIL_336    0.000
4844 H_3660 37.064 29.689 -16.630 ha 336 NIL_336    0.000
4845 H_3652 39.521 30.788 -19.766 ha 336 NIL_336    0.000
4846 H_35441 30.340 36.821 -14.818 h1 336 NIL_336    0.000
4847 H_35442 30.528 35.562 -16.058 h1 336 NIL_336    0.000
4848 H_3658 35.911 31.745 -16.791 ha 336 NIL_336    0.000
4849 H_3654 38.369 32.853 -19.928 ha 336 NIL_336    0.000
4850 H_12951 30.758 31.945 -15.752 h1 336 NIL_336    0.000
4851 H_12952 29.480 33.159 -15.518 h1 336 NIL_336    0.000
4852 H_36681 36.901 34.731 -18.234 h1 336 NIL_336    0.000
4853 H_36682 35.994 34.076 -19.594 h1 336 NIL_336    0.000
4854 H_12931 33.322 32.991 -15.376 hc 336 NIL_336    0.000
4855 H_12932 33.317 34.618 -14.971 hc 336 NIL_336    0.000
4856 H_1292 32.275 35.207 -17.110 h1 336 NIL_336    0.000
4857 HH 34.979 34.795 -16.982 hn 336 NIL_336    0.000
4858 C_1343 30.054 33.449 11.869 c3 337 NIL_337    0.000
4859 NH 29.199 33.781 13.019 n 337 NIL_337    0.000
4860 C_1335 29.631 34.060 10.406 c3 337 NIL_337    0.000
4861 C_1323 29.806 33.315 8.950 c3 337 NIL_337    0.000
4862 C_1319 28.653 33.599 7.969 c 337 NIL_337    0.000
4863 NH 31.069 33.454 8.171 n 337 NIL_337    0.000
4864 O 27.539 33.798 8.408 o 337 NIL_337    0.000
4865 H_1323 29.709 32.245 9.150 h1 337 NIL_337    0.000
4866 H_13351 28.556 34.234 10.490 hc 337 NIL_337    0.000
4867 H_13352 30.069 35.058 10.325 hc 337 NIL_337    0.000
4868 H_13431 30.049 32.360 11.785 h1 337 NIL_337    0.000
4869 H_13432 31.078 33.756 12.099 h1 337 NIL_337    0.000
4870 HH 31.910 33.440 8.729 hn 337 NIL_337    0.000
4871 HH 28.560 34.558 12.943 hn 337 NIL_337    0.000
4872 N 29.840 24.705 -11.955 n 338 NIL_338    0.000
4873 C_2355 28.907 23.684 -11.644 c3 338 NIL_338    0.000
4874 C_2358 30.469 24.998 -10.544 c3 338 NIL_338    0.000
4875 C_2356 28.352 23.971 -10.202 c3 338 NIL_338    0.000
4876 C_2360 27.924 23.426 -12.778 c 338 NIL_338    0.000
4877 C_2357 29.448 24.733 -9.381 c3 338 NIL_338    0.000
4878 O 26.868 22.866 -12.568 o 338 NIL_338    0.000
4879 N 28.919 26.001 -8.829 n 338 NIL_338    0.000
4880 C_2369 30.011 23.875 -8.179 c 338 NIL_338    0.000
4881 O 30.756 22.943 -8.399 o 338 NIL_338    0.000
4882 H_23561 27.465 24.606 -10.273 hc 338 NIL_338    0.000
4883 H_23562 28.069 23.042 -9.702 hc 338 NIL_338    0.000
4884 H_23581 30.835 26.049 -10.472 h1 338 NIL_338    0.000
4885 H_23582 31.353 24.474 -10.475 h1 338 NIL_338    0.000
4886 H_2355 29.504 22.770 -11.583 h1 338 NIL_338    0.000
4887 O 36.826 30.284 15.385 o 339 NIL_339    0.000
4888 C_3865 37.454 30.649 16.307 c 339 NIL_339    0.000
4889 C_3861 36.740 31.346 17.447 c3 339 NIL_339    0.000
4890 N 37.599 32.299 18.120 n 339 NIL_339    0.000
4891 C_3862 35.458 32.114 17.053 c3 339 NIL_339    0.000
4892 C_3864 36.784 33.407 18.632 c3 339 NIL_339    0.000
4893 C_3863 35.404 33.393 17.927 c3 339 NIL_339    0.000
4894 N 35.294 34.591 17.083 n 339 NIL_339    0.000
4895 C_3869 34.290 33.312 18.969 c 339 NIL_339    0.000
4896 H 36.132 34.855 16.588 hn 339 NIL_339    0.000
4897 O 34.366 32.566 19.923 o 339 NIL_339    0.000
4898 H_38641 37.292 34.355 18.438 h1 339 NIL_339    0.000
4899 H_38642 36.650 33.282 19.710 h1 339 NIL_339    0.000
4900 H_38621 35.520 32.400 16.001 hc 339 NIL_339    0.000
4901 H_38622 34.568 31.496 17.194 hc 339 NIL_339    0.000
4902 H_3861 36.485 30.572 18.176 h1 339 NIL_339    0.000
4903 C_2376 30.341 23.407 9.084 c3 340 NIL_340    0.000
4904 C_2372 29.035 23.679 8.315 c 340 NIL_340    0.000
4905 NH 31.447 23.759 8.150 n 340 NIL_340    0.000
4906 C_2388 30.546 24.039 10.586 c3 340 NIL_340    0.000
4907 O 27.991 23.778 8.927 o 340 NIL_340    0.000
4908 C_2396 29.936 23.526 12.023 c3 340 NIL_340    0.000
4909 NH 30.745 22.645 12.882 n 340 NIL_340    0.000
4910 H_23961 29.734 24.418 12.620 h1 340 NIL_340    0.000
4911 H_23962 28.975 23.038 11.843 h1 340 NIL_340    0.000
4912 H_23881 30.241 25.084 10.497 hc 340 NIL_340    0.000
4913 H_23882 31.626 24.083 10.741 hc 340 NIL_340    0.000
4914 H_2376 30.379 22.319 9.188 h1 340 NIL_340    0.000
4915 HH 30.735 21.656 12.679 hn 340 NIL_340    0.000
4916 HH 32.354 23.801 8.591 hn 340 NIL_340    0.000
4917 N 30.114 33.271 2.893 n 341 NIL_341    0.000
4918 C_1312 29.934 34.517 3.408 c3 341 NIL_341    0.000
4919 C_1315 30.684 32.691 4.983 c3 341 NIL_341    0.000
4920 C_1313 30.323 34.811 4.913 c3 341 NIL_341    0.000
4921 C_1317 30.616 35.275 2.330 c 341 NIL_341    0.000
4922 C_1314 30.139 33.588 5.802 c3 341 NIL_341    0.000
4923 O 31.073 36.382 2.530 o 341 NIL_341    0.000
4924 N 28.829 33.622 6.599 n 341 NIL_341    0.000
4925 C_1320 31.249 33.413 6.799 c 341 NIL_341    0.000
4926 O 32.380 33.321 6.369 o 341 NIL_341    0.000
4927 H_13131 31.387 35.043 4.928 hc 341 NIL_341    0.000
4928 H_13132 29.782 35.673 5.310 hc 341 NIL_341    0.000
4929 H_13151 31.054 31.878 4.651 h1 341 NIL_341    0.000
4930 H_13152 28.496 31.026 5.223 h1 341 NIL_341    0.000
4931 H_1312 28.886 34.884 3.057 h1 341 NIL_341    0.000
4932 N 31.225 33.096 -12.060 n 342 NIL_342    0.000
4933 C_1302 30.202 34.086 -11.845 c3 342 NIL_342    0.000
4934 C_1305 31.470 32.475 -10.705 c3 342 NIL_342    0.000
4935 C_1303 30.183 34.462 -10.315 c3 342 NIL_342    0.000
4936 C_1307 30.297 35.205 -12.876 c 342 NIL_342    0.000
4937 C_1304 31.022 33.420 -9.498 c3 342 NIL_342    0.000
4938 O 29.897 36.324 -12.628 o 342 NIL_342    0.000
4939 N 32.194 34.099 -8.914 n 342 NIL_342    0.000
4940 C_1316 30.271 32.715 -8.305 c 342 NIL_342    0.000
4941 O 29.564 31.749 -8.507 o 342 NIL_342    0.000
4942 H_13031 30.620 35.454 -10.175 hc 342 NIL_342    0.000
4943 H_13032 29.154 34.493 -9.951 hc 342 NIL_342    0.000
4944 H_13051 32.305 32.334 -10.765 h1 342 NIL_342    0.000
4945 H_13052 30.901 31.545 -10.658 h1 342 NIL_342    0.000
4946 H_1302 29.253 33.589 -12.067 h1 342 NIL_342    0.000
4947 N 29.972 23.750 3.363 n 343 NIL_343    0.000
4948 C_2365 29.403 25.010 3.762 c3 343 NIL_343    0.000
4949 C_2368 30.214 23.022 4.679 c3 343 NIL_343    0.000
4950 C_2366 29.998 25.330 5.177 c3 343 NIL_343    0.000
4951 C_2370 29.530 26.072 2.684 c 343 NIL_343    0.000
4952 C_2367 30.141 23.986 5.962 c3 343 NIL_343    0.000
4953 O 29.483 27.252 2.965 o 343 NIL_343    0.000
4954 N 29.014 23.803 6.934 n 343 NIL_343    0.000
4955 C_2373 31.437 23.973 6.787 c 343 NIL_343    0.000
4956 O 32.494 24.183 6.227 o 343 NIL_343    0.000
4957 H_23661 30.982 25.780 5.052 hc 343 NIL_343    0.000
4958 H_23662 29.491 26.058 5.765 hc 343 NIL_343    0.000
4959 H_23681 31.201 22.557 4.636 h1 343 NIL_343    0.000
4960 H_23682 29.468 22.230 4.784 h1 343 NIL_343    0.000
4961 H_2365 28.329 24.838 3.877 h1 343 NIL_343    0.000
4962 C_3514 40.580 26.997 4.541 c3 344 NIL_344    0.000
4963 C_3013 40.358 28.709 4.248 c3 344 NIL_344    0.000
4964 C_3012 40.635 29.174 5.571 c3 344 NIL_344    0.000
4965 H_30121 41.618 28.833 5.906 h1 344 NIL_344    0.000
4966 H_30122 40.630 30.267 5.541 h1 344 NIL_344    0.000
4967 H_30131 41.156 28.921 3.485 hc 344 NIL_344    0.000
4968 H_30132 39.434 29.045 3.790 hc 344 NIL_344    0.000
4969 H_35141 41.194 26.656 4.581 hc 344 NIL_344    0.000
4970 H_35142 40.468 26.460 3.198 hc 344 NIL_344    0.000
4971 H_35143 40.035 27.139 4.302 hc 344 NIL_344    0.000
4972 C_1415 30.119 32.510 -5.656 c3 345 NIL_345    0.000
4973 C_1414 30.475 33.451 -4.413 c3 345 NIL_345    0.000
4974 N 30.546 33.130 -6.983 n 345 NIL_345    0.000
4975 C_1413 31.546 34.305 -5.159 c3 345 NIL_345    0.000
4976 N 29.324 34.292 -3.985 n 345 NIL_345    0.000
4977 C_1426 31.124 32.811 -3.127 c 345 NIL_345    0.000
4978 C_1412 31.168 34.376 -6.676 c3 345 NIL_345    0.000
4979 O 32.183 32.221 -3.209 o 345 NIL_345    0.000
4980 C_1417 32.317 34.595 -7.649 c 345 NIL_345    0.000
4981 O 33.339 35.152 -7.305 o 345 NIL_345    0.000
4982 H_1412 30.468 35.198 -6.835 h1 345 NIL_345    0.000
4983 H_14131 32.509 33.797 -5.078 hc 345 NIL_345    0.000
4984 H_14132 31.648 35.296 -4.714 hc 345 NIL_345    0.000
4985 H_14151 30.699 31.591 -5.577 h1 345 NIL_345    0.000
4986 H_14152 29.271 32.128 -5.539 h1 345 NIL_345    0.000
4987 C_2285 31.564 21.976 15.088 c3 346 NIL_346    0.000
4988 C_766 31.188 23.063 14.094 c 346 NIL_346    0.000
4989 O 31.217 24.241 14.381 o 346 NIL_346    0.000
4990 H_22851 30.645 21.462 15.378 h1 346 NIL_346    0.000
4991 H_22852 32.213 21.269 14.562 h1 346 NIL_346    0.000
4992 N 30.547 32.995 -1.877 n 347 NIL_347    0.000
4993 C_1422 29.158 33.328 -1.694 c3 347 NIL_347    0.000
4994 C_1425 31.088 32.726 -0.490 c3 347 NIL_347    0.000
4995 C_1423 28.911 33.677 -0.174 c3 347 NIL_347    0.000
4996 C_1427 28.704 34.313 -2.765 c 347 NIL_347    0.000
4997 C_1424 30.204 33.391 0.664 c3 347 NIL_347    0.000
4998 O 27.818 35.116 -2.550 o 347 NIL_347    0.000
4999 C_1428 30.033 32.512 1.933 c 347 NIL_347    0.000
5000 N 30.768 34.682 1.108 n 347 NIL_347    0.000
5001 O 29.920 31.296 1.856 o 347 NIL_347    0.000
5002 H_14231 28.638 34.731 -0.078 hc 347 NIL_347    0.000
5003 H_14232 28.079 33.081 0.209 hc 347 NIL_347    0.000
5004 H_14251 32.116 33.090 -0.425 h1 347 NIL_347    0.000
5005 H_14252 31.091 31.643 -0.343 h1 347 NIL_347    0.000
5006 H_1422 28.600 32.414 -1.908 h1 347 NIL_347    0.000
5007 C_188 30.577 17.928 18.545 c3 348 NIL_348    0.000
5008 C_112 29.682 18.726 17.586 c3 348 NIL_348    0.000
5009 H_1121 29.710 18.274 16.591 h1 348 NIL_348    0.000
5010 H_1122 28.648 18.714 17.945 h1 348 NIL_348    0.000
5011 H_1881 30.205 16.907 18.654 hc 348 NIL_348    0.000
5012 H_1882 30.565 18.397 19.530 hc 348 NIL_348    0.000
5013 H_1883 31.612 17.891 18.190 hc 348 NIL_348    0.000
5014 N 38.142 25.107 18.984 n 349 NIL_349    0.000
5015 C_133 39.006 25.030 17.819 c3 349 NIL_349    0.000
5016 C_136 38.862 25.815 20.060 c3 349 NIL_349    0.000
5017 C_134 40.447 25.257 18.318 c3 349 NIL_349    0.000
5018 C_138 38.814 23.749 17.048 c 349 NIL_349    0.000
5019 C.fc 40.311 26.125 19.586 c3 349 NIL_349    0.000
5020 O 39.689 23.284 16.346 o 349 NIL_349    0.000
5021 NH 40.489 27.562 19.311 n 349 NIL_349    0.000
5022 H.fc 41.037 25.819 20.343 h1 349 NIL_349    0.000
5023 H_1341 41.065 25.742 17.562 hc 349 NIL_349    0.000
5024 H_1342 40.895 24.297 18.582 hc 349 NIL_349    0.000
5025 H_1361 38.892 25.166 20.940 h1 349 NIL_349    0.000
5026 H_1362 38.336 26.740 20.306 h1 349 NIL_349    0.000
5027 H_133 38.728 25.847 17.148 h1 349 NIL_349    0.000
5028 HH 39.659 28.028 18.977 hn 349 NIL_349    0.000
5029 C_737 27.725 24.913 19.716 c3 350 NIL_350    0.000
5030 C.fb 27.376 23.500 19.169 c3 350 NIL_350    0.000
5031 N 27.586 25.904 18.630 n 350 NIL_350    0.000
5032 C_735 26.731 23.826 17.806 c3 350 NIL_350    0.000
5033 NH 28.569 22.642 19.043 n 350 NIL_350    0.000
5034 C_734 27.306 25.197 17.396 c3 350 NIL_350    0.000
5035 C_739 26.422 25.985 16.462 c 350 NIL_350    0.000
5036 O 25.748 25.445 15.608 o 350 NIL_350    0.000
5037 H_734 28.260 25.049 16.880 h1 350 NIL_350    0.000
5038 H_7351 26.930 23.056 17.057 hc 350 NIL_350    0.000
5039 H_7352 25.649 23.917 17.936 hc 350 NIL_350    0.000
5040 H.fb 26.654 23.003 19.821 h1 350 NIL_350    0.000
5041 H_7371 27.030 25.177 20.516 h1 350 NIL_350    0.000
5042 H_7372 28.748 24.928 20.100 h1 350 NIL_350    0.000
5043 HH 29.401 23.119 18.732 hn 350 NIL_350    0.000
5044 C_2526 27.250 23.811 -4.857 c3 351 NIL_351    0.000
5045 C_2527 26.927 25.253 -5.312 c3 351 NIL_351    0.000
5046 C_3504 25.984 25.224 -6.531 c3 351 NIL_351    0.000
5047 H_35041 25.802 26.243 -6.881 hc 351 NIL_351    0.000
5048 H_35042 25.033 24.779 -6.239 hc 351 NIL_351    0.000
5049 H_35043 26.406 24.642 -7.354 hc 351 NIL_351    0.000
5050 H_25271 27.774 25.775 -5.598 hc 351 NIL_351    0.000
5051 H_25272 26.536 25.828 -4.529 hc 351 NIL_351    0.000
5052 H_25261 26.331 23.359 -4.480 h1 351 NIL_351    0.000
5053 H_25262 27.622 23.212 -5.695 h1 351 NIL_351    0.000
5054 C_2858 38.735 28.590 8.929 c3 352 NIL_352    0.000
5055 C_2854 39.753 29.046 7.866 c 352 NIL_352    0.000
5056 NH 37.913 27.524 8.291 n 352 NIL_352    0.000
5057 C_2870 39.400 28.377 10.421 c3 352 NIL_352    0.000
5058 O 40.705 29.716 8.210 o 352 NIL_352    0.000
5059 C_2878 38.644 28.553 11.868 c3 352 NIL_352    0.000
5060 NH 39.421 29.043 13.022 n 352 NIL_352    0.000
5061 H_28781 37.830 29.269 11.720 h1 352 NIL_352    0.000
5062 H_28782 38.188 27.599 12.143 h1 352 NIL_352    0.000
5063 H_28701 40.210 29.108 10.455 hc 352 NIL_352    0.000
5064 H_28702 39.896 27.405 10.425 hc 352 NIL_352    0.000
5065 H_2858 38.067 29.450 9.021 h1 352 NIL_352    0.000
5066 HH 40.427 28.961 13.010 hn 352 NIL_352    0.000
5067 HH 37.304 27.031 8.926 hn 352 NIL_352    0.000
5068 C_1478 31.455 35.360 0.014 c3 353 NIL_353    0.000
5069 C_1479 30.462 35.941 -1.005 c3 353 NIL_353    0.000
5070 C_3530 29.576 37.001 -0.336 c3 353 NIL_353    0.000
5071 H_35301 29.011 36.557 0.487 hc 353 NIL_353    0.000
5072 H_35302 28.871 37.416 -1.059 hc 353 NIL_353    0.000
5073 H_35303 30.194 37.811 0.057 hc 353 NIL_353    0.000
5074 H_14791 29.837 35.144 -1.409 hc 353 NIL_353    0.000
5075 H_14792 31.008 36.390 -1.836 hc 353 NIL_353    0.000
5076 H_14781 32.101 34.637 -0.486 h1 353 NIL_353    0.000
5077 H_14782 32.072 36.162 0.425 h1 353 NIL_353    0.000
5078 C_3010 38.886 25.013 0.349 c3 354 NIL_354    0.000
5079 C_3011 40.027 25.063 -0.679 c3 354 NIL_354    0.000
5080 C_3516 41.384 24.942 0.028 c3 354 NIL_354    0.000
5081 H_35161 41.518 25.763 0.736 hc 354 NIL_354    0.000
5082 H_35162 42.195 24.978 -0.702 hc 354 NIL_354    0.000
5083 H_35163 41.444 23.998 0.574 hc 354 NIL_354    0.000
5084 H_30111 39.984 26.000 -1.237 hc 354 NIL_354    0.000
5085 H_30112 39.912 24.244 -1.392 hc 354 NIL_354    0.000
5086 H_30101 37.926 25.054 -0.166 h1 354 NIL_354    0.000
5087 H_30102 38.947 24.071 0.900 h1 354 NIL_354    0.000
5088 C_1477 27.818 34.681 -5.933 c3 355 NIL_355    0.000
5089 C_1476 28.922 35.240 -5.024 c3 355 NIL_355    0.000
5090 C_3532 28.263 33.388 -6.628 c3 355 NIL_355    0.000
5091 H_35321 29.107 33.569 -7.205 hc 355 NIL_355    0.000
5092 H_35322 27.477 33.027 -7.293 hc 355 NIL_355    0.000
5093 H_35323 28.241 32.746 -5.976 hc 355 NIL_355    0.000
5094 H_14761 29.794 35.491 -5.627 h1 355 NIL_355    0.000
5095 H_14762 28.553 36.151 -4.543 h1 355 NIL_355    0.000
5096 H_14771 27.556 35.431 -6.685 hc 355 NIL_355    0.000
5097 H_14772 26.931 34.474 -5.330 hc 355 NIL_355    0.000
5098 C_1472 33.880 32.681 -9.999 c3 356 NIL_356    0.000
5099 C_1471 33.317 34.100 -9.844 c3 356 NIL_356    0.000
5100 C_3542 34.925 32.629 -11.120 c3 356 NIL_356    0.000
5101 H_35421 35.276 31.604 -11.256 hc 356 NIL_356    0.000
5102 H_35422 35.780 33.263 -10.873 hc 356 NIL_356    0.000
5103 H_35423 34.492 32.978 -12.060 hc 356 NIL_356    0.000
5104 H_14711 34.094 34.772 -9.473 h1 356 NIL_356    0.000
5105 H_14712 32.964 34.461 -10.813 h1 356 NIL_356    0.000
5106 H_14721 33.285 31.895 -10.082 hc 356 NIL_356    0.000
5107 H_14722 34.319 32.352 -9.058 hc 356 NIL_356    0.000
5108 C_660 43.290 30.616 17.915 c3 357 NIL_357    0.000
5109 C_662 43.370 31.830 18.853 c3 357 NIL_357    0.000
5110 H_6621 42.785 32.660 18.452 hc 357 NIL_357    0.000
5111 H_6622 44.402 32.166 18.958 hc 357 NIL_357    0.000
5112 H_6623 42.985 31.571 19.840 hc 357 NIL_357    0.000
5113 H_6601 43.714 30.884 16.943 h1 357 NIL_357    0.000
5114 H_6602 43.866 29.784 18.332 h1 357 NIL_357    0.000
5115 C_3009 40.712 28.542 -5.971 c3 358 NIL_358    0.000
5116 C_3008 40.685 27.362 -4.990 c3 358 NIL_358    0.000
5117 C_3518 39.367 28.745 -6.623 c3 358 NIL_358    0.000
5118 H_35181 39.027 28.524 -6.444 hc 358 NIL_358    0.000
5119 H_35182 39.359 27.892 -7.237 hc 358 NIL_358    0.000
5120 H_35183 39.344 29.564 -7.315 hc 358 NIL_358    0.000
5121 H_30081 40.424 26.445 -5.519 h1 358 NIL_358    0.000
5122 H_30082 41.674 27.235 -4.541 h1 358 NIL_358    0.000
5123 H_30091 41.459 28.360 -6.747 hc 358 NIL_358    0.000
5124 H_30092 40.992 29.455 -5.442 hc 358 NIL_358    0.000
5125 C_2299 28.368 33.497 15.307 c3 359 NIL_359    0.000
5126 C_309 29.272 33.068 14.169 c 359 NIL_359    0.000
5127 O 30.044 32.150 14.253 o 359 NIL_359    0.000
5128 H_22991 28.735 34.391 15.584 h1 359 NIL_359    0.000
5129 H_22992 27.378 33.616 14.883 h1 359 NIL_359    0.000
5130 C_769 28.271 35.626 16.534 c3 360 NIL_360    0.000
5131 C_770 27.764 35.733 15.079 c3 360 NIL_360    0.000
5132 H_7701 27.299 34.848 14.759 hc 360 NIL_360    0.000
5133 H_7702 28.594 35.951 14.403 hc 360 NIL_360    0.000
5134 H_7703 27.025 36.527 15.002 hc 360 NIL_360    0.000
5135 H_7691 29.013 34.825 16.696 h1 360 NIL_360    0.000
5136 H_7692 28.785 36.536 16.814 h1 360 NIL_360    0.000
5137 C_3691 10.884 31.071 -19.171 c2 361 NIL_361    0.000
5138 C_3689 11.571 32.236 -19.078 c2 361 NIL_361    0.000
5139 C_3693 11.071 30.006 -18.372 c2 361 NIL_361    0.000
5140 C_3585 12.524 32.468 -18.166 c2 361 NIL_361    0.000
5141 C_3695 12.023 30.248 -17.458 c2 361 NIL_361    0.000
5142 C_3705 10.247 28.616 -18.511 c3 361 NIL_361    0.000
5143 C_1296 13.355 33.699 -18.090 c 361 NIL_361    0.000
5144 C_3697 12.710 31.410 -17.360 c2 361 NIL_361    0.000
5145 NH 10.790 27.392 -17.681 n 361 NIL_361    0.000
5146 O 13.285 34.574 -18.930 o 361 NIL_361    0.000
5147 C_2350 11.834 26.458 -17.888 c 361 NIL_361    0.000
5148 C_2345 12.115 25.224 -16.891 c3 361 NIL_361    0.000
5149 O 12.556 26.591 -18.855 o 361 NIL_361    0.000
5150 N 13.200 24.143 -17.016 n 361 NIL_361    0.000
5151 C_2346 12.312 25.789 -15.396 c3 361 NIL_361    0.000
5152 C_2348 13.758 23.973 -15.617 c3 361 NIL_361    0.000
5153 C_2347 12.875 24.653 -14.493 c3 361 NIL_361    0.000
5154 N 11.749 23.806 -14.050 n 361 NIL_361    0.000
5155 C_2359 13.671 25.159 -13.228 c 361 NIL_361    0.000
5156 C_3508 10.859 23.509 -15.168 c3 361 NIL_361    0.000
5157 O 14.578 25.954 -13.366 o 361 NIL_361    0.000
5158 C_3510 10.137 24.768 -15.675 c3 361 NIL_361    0.000
5159 C_3512 9.312 25.415 -14.576 c3 361 NIL_361    0.000
5160 H_35121 8.576 24.706 -14.193 hc 361 NIL_361    0.000
5161 H_35122 8.787 26.292 -14.962 hc 361 NIL_361    0.000
5162 H_35123 9.958 25.730 -13.754 hc 361 NIL_361    0.000
5163 H_35101 9.505 24.504 -16.528 hc 361 NIL_361    0.000
5164 H_35102 10.832 25.507 -16.017 hc 361 NIL_361    0.000
5165 H_35081 10.116 22.777 -14.844 h1 361 NIL_361    0.000
5166 H_35082 11.452 23.072 -15.975 h1 361 NIL_361    0.000
5167 H_23481 14.717 24.442 -15.570 h1 361 NIL_361    0.000
5168 H_23482 13.872 22.908 -15.400 h1 361 NIL_361    0.000
5169 H_23461 13.019 26.602 -15.446 hc 361 NIL_361    0.000
5170 H_23462 11.370 26.191 -14.982 hc 361 NIL_361    0.000
5171 H_2345 11.153 24.662 -16.908 h1 361 NIL_361    0.000
5172 H_3697 13.460 31.476 -16.609 ha 361 NIL_361    0.000
5173 H_37051 9.214 28.793 -18.202 h1 361 NIL_361    0.000
5174 H_37052 10.231 28.321 -19.564 h1 361 NIL_361    0.000
5175 H_3695 12.266 29.454 -16.756 ha 361 NIL_361    0.000
5176 H_3689 11.345 33.023 -19.795 ha 361 NIL_361    0.000
5177 H_3691 10.134 30.987 -19.952 ha 361 NIL_361    0.000
5178 HH 10.245 27.223 -16.848 hn 361 NIL_361    0.000
5179 C_3522 23.977 26.392 -15.152 c3 362 NIL_362    0.000
5180 N 23.135 26.939 -14.095 n 362 NIL_362    0.000
5181 C_3524 25.365 26.048 -14.604 c3 362 NIL_362    0.000
5182 C_2829 21.768 27.233 -14.579 c3 362 NIL_362    0.000
5183 C_3526 26.042 27.327 -14.091 c3 362 NIL_362    0.000
5184 C_2828 21.263 26.081 -15.505 c3 362 NIL_362    0.000
5185 C_2830 21.747 28.370 -15.683 c3 362 NIL_362    0.000
5186 C_2841 20.833 27.428 -13.328 c 362 NIL_362    0.000
5187 C_2827 21.730 26.312 -16.991 c3 362 NIL_362    0.000
5188 N 22.003 27.846 -17.087 n 362 NIL_362    0.000
5189 O 19.630 27.494 -13.477 o 362 NIL_362    0.000
5190 C_2832 20.739 25.497 -17.970 c 362 NIL_362    0.000
5191 O 20.268 26.052 -18.942 o 362 NIL_362    0.000
5192 NH 20.408 24.142 -17.731 n 362 NIL_362    0.000
5193 C_3643 19.584 23.076 -18.544 c3 362 NIL_362    0.000
5194 C_3631 17.966 23.103 -18.382 c2 362 NIL_362    0.000
5195 C_3629 17.118 22.539 -19.259 c2 362 NIL_362    0.000
5196 C_3633 17.299 23.686 -17.373 c2 362 NIL_362    0.000
5197 C_3627 15.766 22.561 -19.151 c2 362 NIL_362    0.000
5198 C_3635 15.947 23.712 -17.263 c2 362 NIL_362    0.000
5199 C_2378 15.106 23.154 -18.147 c2 362 NIL_362    0.000
5200 C_2349 13.621 23.268 -18.067 c 362 NIL_362    0.000
5201 O 12.909 22.855 -18.958 o 362 NIL_362    0.000
5202 H_3635 15.551 24.225 -16.446 ha 362 NIL_362    0.000
5203 H_3627 15.184 22.088 -19.937 ha 362 NIL_362    0.000
5204 H_3633 17.880 24.182 -16.600 ha 362 NIL_362    0.000
5205 H_3629 17.547 22.038 -20.123 ha 362 NIL_362    0.000
5206 H_36431 19.948 22.087 -18.256 h1 362 NIL_362    0.000
5207 H_36432 19.823 23.217 -19.601 h1 362 NIL_362    0.000
5208 H_2827 22.702 25.826 -17.104 h1 362 NIL_362    0.000
5209 H_28301 20.764 28.836 -15.667 h1 362 NIL_362    0.000
5210 H_28302 22.493 29.131 -15.436 h1 362 NIL_362    0.000
5211 H_28281 20.172 26.095 -15.494 hc 362 NIL_362    0.000
5212 H_28282 21.589 25.108 -15.135 hc 362 NIL_362    0.000
5213 H_35261 27.011 27.094 -13.648 hc 362 NIL_362    0.000
5214 H_35262 25.431 27.829 -13.346 hc 362 NIL_362    0.000
5215 H_35263 26.189 28.027 -14.912 hc 362 NIL_362    0.000
5216 H_35241 25.975 25.597 -15.388 hc 362 NIL_362    0.000
5217 H_35242 25.264 25.326 -13.791 hc 362 NIL_362    0.000
5218 H_35221 24.072 27.138 -15.946 h1 362 NIL_362    0.000
5219 H_35222 23.503 25.495 -15.558 h1 362 NIL_362    0.000
5220 HH 20.814 23.756 -16.891 hn 362 NIL_362    0.000
5221 N 11.747 23.804 -3.788 n 363 NIL_363    0.000
5222 C_2464 13.040 24.343 -4.267 c3 363 NIL_363    0.000
5223 C_2463 12.754 25.666 -5.013 c3 363 NIL_363    0.000
5224 C_2465 13.631 23.568 -5.542 c3 363 NIL_363    0.000
5225 C_2476 14.011 24.545 -3.038 c 363 NIL_363    0.000
5226 C_2462 12.362 25.191 -6.538 c3 363 NIL_363    0.000
5227 N 13.183 24.183 -6.860 n 363 NIL_363    0.000
5228 O 15.115 25.020 -3.217 o 363 NIL_363    0.000
5229 C_2467 12.139 26.308 -7.529 c 363 NIL_363    0.000
5230 O 11.780 27.429 -7.235 o 363 NIL_363    0.000
5231 H_2462 11.317 24.743 -6.433 h1 363 NIL_363    0.000
5232 H_24651 14.722 23.608 -5.501 h1 363 NIL_363    0.000
5233 H_24652 13.317 22.520 -5.515 h1 363 NIL_363    0.000
5234 H_24631 13.626 26.278 -5.083 hc 363 NIL_363    0.000
5235 H_24632 11.949 26.249 -4.517 hc 363 NIL_363    0.000
5236 C_268 15.614 36.156 18.154 c3 364 NIL_364    0.000
5237 C_267 16.451 34.960 17.661 c3 364 NIL_364    0.000
5238 C.fa 14.851 35.648 19.396 c3 364 NIL_364    0.000
5239 N 16.739 34.157 18.833 n 364 NIL_364    0.000
5240 C_272 17.692 35.349 16.899 c 364 NIL_364    0.000
5241 C_270 15.700 34.424 19.845 c3 364 NIL_364    0.000
5242 NH 13.461 35.262 19.098 n 364 NIL_364    0.000
5243 O 17.721 36.321 16.172 o 364 NIL_364    0.000
5244 H_2701 16.182 34.634 20.802 h1 364 NIL_364    0.000
5245 H_2702 15.063 33.542 19.948 h1 364 NIL_364    0.000
5246 H.fa 14.845 36.415 20.175 h1 364 NIL_364    0.000
5247 H_267 15.846 34.346 16.987 h1 364 NIL_364    0.000
5248 H_2681 14.937 36.530 17.383 hc 364 NIL_364    0.000
5249 H_2682 16.289 36.959 18.456 hc 364 NIL_364    0.000
5250 HH 13.367 34.347 18.694 hn 364 NIL_364    0.000
5251 C_2530 11.240 24.072 6.275 c3 365 NIL_365    0.000
5252 C_2531 11.072 25.566 5.962 c3 365 NIL_365    0.000
5253 C_3500 9.756 25.812 5.216 c3 365 NIL_365    0.000
5254 H_35001 9.746 25.262 4.273 hc 365 NIL_365    0.000
5255 H_35002 9.635 26.876 5.001 hc 365 NIL_365    0.000
5256 H_35003 8.910 25.479 5.822 hc 365 NIL_365    0.000
5257 H_25311 11.778 25.894 5.301 hc 365 NIL_365    0.000
5258 H_25312 11.083 26.138 6.892 hc 365 NIL_365    0.000
5259 H_25301 10.429 23.748 6.932 h1 365 NIL_365    0.000
5260 H_25302 11.195 23.497 5.347 h1 365 NIL_365    0.000
5261 C_728 9.962 34.120 17.034 c3 366 NIL_366    0.000
5262 C_727 10.864 32.959 17.499 c3 366 NIL_366    0.000
5263 N 10.647 35.366 17.436 n3 366 NIL_366    0.000
5264 C_726 11.638 33.619 18.667 c3 366 NIL_366    0.000
5265 N 11.755 32.521 16.402 n 366 NIL_366    0.000
5266 C_738 10.029 31.802 18.030 c 366 NIL_366    0.000
5267 C_725 11.156 35.088 18.786 c3 366 NIL_366    0.000
5268 O 8.944 31.971 18.547 o 366 NIL_366    0.000
5269 C_729 12.303 35.961 19.279 c 366 NIL_366    0.000
5270 O 12.222 37.082 19.737 o 366 NIL_366    0.000
5271 H_725 10.335 35.147 19.506 h1 366 NIL_366    0.000
5272 H_7261 12.702 33.593 18.441 hc 366 NIL_366    0.000
5273 H_7262 11.473 33.083 19.604 hc 366 NIL_366    0.000
5274 H_7281 9.787 34.092 15.956 h1 366 NIL_366    0.000
5275 H_7282 9.007 34.061 17.561 h1 366 NIL_366    0.000
5276 C_2960 21.442 28.262 1.953 c 367 NIL_367    0.000
5277 C_2956 21.946 27.390 0.739 c3 367 NIL_367    0.000
5278 O 20.633 29.149 1.768 o 367 NIL_367    0.000
5279 C_2955 23.079 28.046 -0.114 c3 367 NIL_367    0.000
5280 C_2957 20.881 27.142 -0.431 c3 367 NIL_367    0.000
5281 N 22.453 26.117 1.305 n 367 NIL_367    0.000
5282 C_2954 22.602 28.232 -1.599 c3 367 NIL_367    0.000
5283 N 21.438 27.414 -1.814 n 367 NIL_367    0.000
5284 C_2959 23.631 28.015 -2.695 c 367 NIL_367    0.000
5285 O 24.812 28.200 -2.484 o 367 NIL_367    0.000
5286 H_2954 22.265 29.265 -1.712 h1 367 NIL_367    0.000
5287 H_29571 20.521 26.112 -0.388 h1 367 NIL_367    0.000
5288 H_29572 20.027 27.807 -0.274 h1 367 NIL_367    0.000
5289 H_29551 23.948 27.384 -0.103 hc 367 NIL_367    0.000
5290 H_29552 23.379 29.003 0.312 hc 367 NIL_367    0.000
5291 N 17.807 22.428 18.082 n 368 NIL_368    0.000
5292 C_3832 17.557 23.685 17.403 c3 368 NIL_368    0.000
5293 C_3835 19.197 22.406 18.570 c3 368 NIL_368    0.000
5294 C_3833 18.942 24.253 17.022 c3 368 NIL_368    0.000
5295 C_3837 16.612 23.512 16.234 c 368 NIL_368    0.000
5296 C_3834 19.976 23.605 17.969 c3 368 NIL_368    0.000
5297 O 16.661 24.221 15.250 o 368 NIL_368    0.000
5298 N 21.131 23.113 17.204 n 368 NIL_368    0.000
5299 C_3841 20.402 24.565 19.074 c 368 NIL_368    0.000
5300 H 20.997 22.246 16.705 hn 368 NIL_368    0.000
5301 O 19.698 24.782 20.039 o 368 NIL_368    0.000
5302 H_38331 19.178 23.956 15.999 hc 368 NIL_368    0.000
5303 H_38332 18.965 25.343 17.086 hc 368 NIL_368    0.000
5304 H_38351 19.671 21.471 18.261 h1 368 NIL_368    0.000
5305 H_38352 19.203 22.476 19.661 h1 368 NIL_368    0.000
5306 H_3832 17.072 24.356 18.116 h1 368 NIL_368    0.000
5307 C_3502 15.226 27.934 1.314 c3 369 NIL_369    0.000
5308 C_2529 14.707 27.183 0.080 c3 369 NIL_369    0.000
5309 C_2528 13.274 26.689 0.324 c3 369 NIL_369    0.000
5310 H_25281 12.642 27.536 0.600 h1 369 NIL_369    0.000
5311 H_25282 12.887 26.246 -0.597 h1 369 NIL_369    0.000
5312 H_25291 14.723 27.852 -0.782 hc 369 NIL_369    0.000
5313 H_25292 15.376 26.369 -0.134 hc 369 NIL_369    0.000
5314 H_35021 15.241 27.273 2.182 hc 369 NIL_369    0.000
5315 H_35022 14.580 28.785 1.538 hc 369 NIL_369    0.000
5316 H_35023 16.238 28.303 1.139 hc 369 NIL_369    0.000
5317 C_3887 9.832 29.295 18.124 c3 370 NIL_370    0.000
5318 C_3886 10.676 28.106 17.593 c3 370 NIL_370    0.000
5319 N 10.531 30.560 17.846 n 370 NIL_370    0.000
5320 C_3885 11.853 28.810 16.873 c3 370 NIL_370    0.000
5321 N 9.882 27.325 16.632 n 370 NIL_370    0.000
5322 C_3892 11.158 27.252 18.764 c 370 NIL_370    0.000
5323 C_3884 11.866 30.278 17.356 c3 370 NIL_370    0.000
5324 H 9.276 27.857 16.025 hn 370 NIL_370    0.000
5325 O 11.521 27.750 19.810 o 370 NIL_370    0.000
5326 C_3888 12.302 31.284 16.311 c 370 NIL_370    0.000
5327 O 13.036 30.967 15.418 o 370 NIL_370    0.000
5328 H_3884 12.551 30.374 18.202 h1 370 NIL_370    0.000
5329 H_38851 11.671 28.792 15.795 hc 370 NIL_370    0.000
5330 H_38852 12.805 28.314 17.070 hc 370 NIL_370    0.000
5331 H_38871 8.861 29.310 17.623 h1 370 NIL_370    0.000
5332 H_38872 9.680 29.197 19.201 h1 370 NIL_370    0.000
5333 C_2292 23.113 29.968 15.312 c3 371 NIL_371    0.000
5334 C_243 22.279 29.529 14.116 c 371 NIL_371    0.000
5335 O 21.105 29.579 14.068 o 371 NIL_371    0.000
5336 H_22921 23.665 29.096 15.673 h1 371 NIL_371    0.000
5337 H_22922 23.820 30.725 14.964 h1 371 NIL_371    0.000
5338 C_2474 13.319 24.319 0.838 c3 372 NIL_372    0.000
5339 C_2473 12.021 23.904 0.059 c3 372 NIL_372    0.000
5340 C_2475 14.326 24.353 -0.408 c3 372 NIL_372    0.000
5341 C_2478 13.644 23.344 2.040 c 372 NIL_372    0.000
5342 N 13.206 25.688 1.386 n 372 NIL_372    0.000
5343 C_2472 12.420 23.496 -1.405 c3 372 NIL_372    0.000
5344 N 13.614 24.222 -1.741 n 372 NIL_372    0.000
5345 O 14.065 22.227 1.816 o 372 NIL_372    0.000
5346 C_2477 11.364 23.557 -2.499 c 372 NIL_372    0.000
5347 O 10.194 23.366 -2.240 o 372 NIL_372    0.000
5348 H_2472 12.722 22.446 -1.369 h1 372 NIL_372    0.000
5349 H_24751 14.876 25.254 -0.400 h1 372 NIL_372    0.000
5350 H_24752 15.025 23.517 -0.324 h1 372 NIL_372    0.000
5351 H_24731 11.345 24.761 0.018 hc 372 NIL_372    0.000
5352 H_24732 11.502 23.085 0.564 hc 372 NIL_372    0.000
5353 C_2521 12.199 26.994 -9.880 c3 373 NIL_373    0.000
5354 C_2522 13.326 27.132 -10.878 c3 373 NIL_373    0.000
5355 C_3506 14.651 27.538 -10.114 c3 373 NIL_373    0.000
5356 H_35061 14.910 26.791 -9.347 hc 373 NIL_373    0.000
5357 H_35062 14.483 28.486 -9.643 hc 373 NIL_373    0.000
5358 H_35063 15.482 27.610 -10.814 hc 373 NIL_373    0.000
5359 H_25221 13.149 27.784 -11.654 hc 373 NIL_373    0.000
5360 H_25222 13.444 26.186 -11.441 hc 373 NIL_373    0.000
5361 H_25211 12.058 27.972 -9.415 h1 373 NIL_373    0.000
5362 H_25212 11.290 26.730 -10.426 h1 373 NIL_373    0.000
5363 C_111 15.068 20.201 17.069 c3 374 NIL_374    0.000
5364 C_110 15.585 21.593 17.484 c3 374 NIL_374    0.000
5365 N 13.657 20.114 17.497 n3 374 NIL_374    0.000
5366 C_109 14.474 22.075 18.458 c3 374 NIL_374    0.000
5367 N 15.754 22.466 16.297 n 374 NIL_374    0.000
5368 C_137 16.892 21.446 18.249 c 374 NIL_374    0.000
5369 C_108 13.568 20.853 18.763 c3 374 NIL_374    0.000
5370 O 17.125 20.473 18.934 o 374 NIL_374    0.000
5371 C_113 12.171 21.290 19.198 c 374 NIL_374    0.000
5372 O 11.270 20.564 19.566 o 374 NIL_374    0.000
5373 H_108 14.010 20.266 19.572 h1 374 NIL_374    0.000
5374 H_1091 13.884 22.851 17.961 hc 374 NIL_374    0.000
5375 H_1092 14.895 22.496 19.375 hc 374 NIL_374    0.000
5376 H_1111 15.162 20.053 15.990 h1 374 NIL_374    0.000
5377 H_1112 15.643 19.437 17.598 h1 374 NIL_374    0.000
5378 C_2855 21.220 27.272 6.943 c 375 NIL_375    0.000
5379 C_2849 22.135 27.853 5.845 c3 375 NIL_375    0.000
5380 O 20.321 26.522 6.620 o 375 NIL_375    0.000
5381 C_2848 22.295 26.290 5.823 c3 375 NIL_375    0.000
5382 C_2850 21.391 28.523 4.593 c3 375 NIL_375    0.000
5383 N 23.131 28.720 6.529 n 375 NIL_375    0.000
5384 C_2847 22.362 27.221 3.289 c3 375 NIL_375    0.000
5385 N 21.851 27.972 3.243 n 375 NIL_375    0.000
5386 C_2852 22.810 25.790 2.443 c 375 NIL_375    0.000
5387 O 23.410 24.832 2.866 o 375 NIL_375    0.000
5388 H_2847 23.845 27.989 2.942 h1 375 NIL_375    0.000
5389 H_28501 20.321 28.335 4.674 h1 375 NIL_375    0.000
5390 H_28502 21.557 29.605 4.611 h1 375 NIL_375    0.000
5391 H_28481 22.174 25.795 5.145 hc 375 NIL_375    0.000
5392 H_28482 23.756 26.297 5.731 hc 375 NIL_375    0.000
5393 C_3520 22.261 22.943 -8.932 c3 376 NIL_376    0.000
5394 C_3007 20.909 23.443 -9.469 c3 376 NIL_376    0.000
5395 C_3006 21.044 24.871 -10.017 c3 376 NIL_376    0.000
5396 H_30061 21.747 24.882 -10.853 h1 376 NIL_376    0.000
5397 H_30062 20.069 25.216 -10.372 h1 376 NIL_376    0.000
5398 H_30071 20.560 22.773 -10.256 hc 376 NIL_376    0.000
5399 H_30072 20.171 23.430 -8.665 hc 376 NIL_376    0.000
5400 H_35201 22.725 23.589 -8.233 hc 376 NIL_376    0.000
5401 H_35202 22.992 22.872 -9.732 hc 376 NIL_376    0.000
5402 H_35203 22.141 21.959 -8.475 hc 376 NIL_376    0.000
5403 C_262 25.107 28.334 19.435 c 377 NIL_377    0.000
5404 C_257 24.763 29.744 18.979 c3 377 NIL_377    0.000
5405 O 26.188 27.939 19.823 o 377 NIL_377    0.000
5406 N 25.388 30.208 17.737 n3 377 NIL_377    0.000
5407 C_258 23.259 29.817 18.625 c3 377 NIL_377    0.000
5408 C_260 24.537 31.307 17.231 c3 377 NIL_377    0.000
5409 C_259 23.078 30.958 17.599 c3 377 NIL_377    0.000
5410 N 22.300 30.524 16.414 n 377 NIL_377    0.000
5411 C_271 22.427 32.138 18.303 c 377 NIL_377    0.000
5412 O 23.069 32.928 18.965 o 377 NIL_377    0.000
5413 H_2601 24.655 31.434 16.153 h1 377 NIL_377    0.000
5414 H_2602 24.815 32.233 17.740 h1 377 NIL_377    0.000
5415 H_2581 22.954 28.876 18.163 hc 377 NIL_377    0.000
5416 H_2582 22.646 29.978 19.515 hc 377 NIL_377    0.000
5417 H_257 24.985 30.441 19.790 h1 377 NIL_377    0.000
5418 N 23.215 27.582 -3.923 n 378 NIL_378    0.000
5419 C_2946 21.834 27.278 -4.364 c3 378 NIL_378    0.000
5420 C_2945 21.812 25.957 -5.194 c3 378 NIL_378    0.000
5421 C_2947 21.306 28.208 -5.525 c3 378 NIL_378    0.000
5422 C_2958 20.928 27.135 -3.078 c 378 NIL_378    0.000
5423 C_2944 22.222 26.306 -6.660 c3 378 NIL_378    0.000
5424 N 21.350 27.519 -6.871 n 378 NIL_378    0.000
5425 O 19.800 26.695 -3.175 o 378 NIL_378    0.000
5426 C_2949 21.819 25.320 -7.739 c 378 NIL_378    0.000
5427 O 21.640 24.183 -7.429 o 378 NIL_378    0.000
5428 H_2944 23.311 26.388 -6.715 h1 378 NIL_378    0.000
5429 H_29471 20.281 28.341 -5.518 h1 378 NIL_378    0.000
5430 H_29472 21.446 29.641 -4.905 h1 378 NIL_378    0.000
5431 H_29451 20.789 25.574 -5.206 hc 378 NIL_378    0.000
5432 H_29452 22.462 25.195 -4.758 hc 378 NIL_378    0.000
5433 C_1480 11.167 33.798 5.729 c3 379 NIL_379    0.000
5434 C_1481 11.526 33.662 4.243 c3 379 NIL_379    0.000
5435 C_3528 12.173 32.299 3.972 c3 379 NIL_379    0.000
5436 H_35281 11.485 31.517 4.208 hc 379 NIL_379    0.000
5437 H_35282 12.962 32.490 4.088 hc 379 NIL_379    0.000
5438 H_35283 12.380 32.179 2.934 hc 379 NIL_379    0.000
5439 H_14811 12.127 34.333 4.243 hc 379 NIL_379    0.000
5440 H_14812 10.627 33.764 3.633 hc 379 NIL_379    0.000
5441 H_14801 10.738 34.786 5.912 h1 379 NIL_379    0.000
5442 H_14802 10.424 33.039 5.989 h1 379 NIL_379    0.000
5443 C_2948 21.508 28.121 -8.233 c 380 NIL_380    0.000
5444 C_2937 21.669 27.174 -9.481 c3 380 NIL_380    0.000
5445 O 21.188 29.280 -8.378 o 380 NIL_380    0.000
5446 C_2936 23.023 27.310 -10.259 c3 380 NIL_380    0.000
5447 C_2938 20.671 27.461 -10.696 c3 380 NIL_380    0.000
5448 N 21.526 25.788 -8.986 n 380 NIL_380    0.000
5449 C_2935 22.747 27.702 -11.758 c3 380 NIL_380    0.000
5450 N 21.359 27.454 -12.043 n 380 NIL_380    0.000
5451 C_2939 23.636 27.099 -12.833 c 380 NIL_380    0.000
5452 O 24.755 26.729 -12.560 o 380 NIL_380    0.000
5453 H_2935 22.881 28.784 -11.849 h1 380 NIL_380    0.000
5454 H_29381 19.870 26.718 -10.702 h1 380 NIL_380    0.000
5455 H_29382 20.225 28.449 -10.561 h1 380 NIL_380    0.000
5456 H_29361 23.542 26.349 -10.231 hc 380 NIL_380    0.000
5457 H_29362 23.667 28.053 -9.785 hc 380 NIL_380    0.000
5458 C_1297 17.058 33.637 -17.895 c 381 NIL_381    0.000
5459 C_1292 15.831 34.125 -16.958 c3 381 NIL_381    0.000
5460 O 16.847 32.819 -18.768 o 381 NIL_381    0.000
5461 NH 18.376 34.130 -17.734 n 381 NIL_381    0.000
5462 N 14.371 33.586 -17.090 n 381 NIL_381    0.000
5463 C_1293 16.198 33.881 -15.438 c3 381 NIL_381    0.000
5464 C_3668 19.722 33.930 -18.534 c3 381 NIL_381    0.000
5465 C_1295 14.043 33.011 -15.728 c3 381 NIL_381    0.000
5466 C_1294 14.912 33.645 -14.573 c3 381 NIL_381    0.000
5467 C_3656 20.514 32.519 -18.381 c2 381 NIL_381    0.000
5468 N 14.348 34.929 -14.098 n 381 NIL_381    0.000
5469 C_1306 15.192 32.737 -13.318 c 381 NIL_381    0.000
5470 C_3654 21.549 32.155 -19.159 c2 381 NIL_381    0.000
5471 C_3658 20.233 31.565 -17.478 c2 381 NIL_381    0.000
5472 C_3544 14.440 35.961 -15.127 c3 381 NIL_381    0.000
5473 O 15.879 31.742 -13.430 o 381 NIL_381    0.000
5474 C_3652 22.213 30.978 -19.064 c2 381 NIL_381    0.000
5475 C_3660 20.897 30.388 -17.376 c2 381 NIL_381    0.000
5476 C_3546 15.888 36.410 -15.361 c3 381 NIL_381    0.000
5477 C_3574 21.922 30.025 -18.164 c2 381 NIL_381    0.000
5478 C_3548 15.941 37.428 -16.507 c3 381 NIL_381    0.000
5479 C_2831 22.581 28.693 -18.090 c 381 NIL_381    0.000
5480 O 23.372 28.330 -18.937 o 381 NIL_381    0.000
5481 H_35481 15.360 38.316 -16.251 hc 381 NIL_381    0.000
5482 H_35482 15.528 36.991 -17.419 hc 381 NIL_381    0.000
5483 H_35483 16.972 37.727 -16.700 hc 381 NIL_381    0.000
5484 H_35461 16.472 35.649 -15.684 hc 381 NIL_381    0.000
5485 H_35462 16.289 36.854 -14.447 hc 381 NIL_381    0.000
5486 H_3660 20.564 29.689 -16.630 ha 381 NIL_381    0.000
5487 H_3652 23.021 30.788 -19.766 ha 381 NIL_381    0.000
5488 H_35441 13.840 36.821 -14.818 h1 381 NIL_381    0.000
5489 H_35442 14.028 35.562 -16.058 h1 381 NIL_381    0.000
5490 H_3658 19.411 31.745 -16.791 ha 381 NIL_381    0.000
5491 H_3654 21.869 32.853 -19.928 ha 381 NIL_381    0.000
5492 H_12951 14.258 31.945 -15.752 h1 381 NIL_381    0.000
5493 H_12952 12.980 33.159 -15.518 h1 381 NIL_381    0.000
5494 H_36681 20.401 34.731 -18.234 h1 381 NIL_381    0.000
5495 H_36682 19.494 34.076 -19.594 h1 381 NIL_381    0.000
5496 H_12931 16.822 32.991 -15.376 hc 381 NIL_381    0.000
5497 H_12932 16.817 34.618 -14.971 hc 381 NIL_381    0.000
5498 H_1292 15.775 35.207 -17.110 h1 381 NIL_381    0.000
5499 HH 18.479 34.795 -16.982 hn 381 NIL_381    0.000
5500 C_1343 13.554 33.449 11.869 c3 382 NIL_382    0.000
5501 NH 12.699 33.781 13.019 n 382 NIL_382    0.000
5502 C_1335 13.131 34.060 10.406 c3 382 NIL_382    0.000
5503 C_1323 13.306 33.315 8.950 c3 382 NIL_382    0.000
5504 C_1319 12.153 33.599 7.969 c 382 NIL_382    0.000
5505 NH 14.569 33.454 8.171 n 382 NIL_382    0.000
5506 O 11.039 33.798 8.408 o 382 NIL_382    0.000
5507 H_1323 13.209 32.245 9.150 h1 382 NIL_382    0.000
5508 H_13351 12.056 34.234 10.490 hc 382 NIL_382    0.000
5509 H_13352 13.569 35.058 10.325 hc 382 NIL_382    0.000
5510 H_13431 13.549 32.360 11.785 h1 382 NIL_382    0.000
5511 H_13432 14.578 33.756 12.099 h1 382 NIL_382    0.000
5512 HH 15.410 33.440 8.729 hn 382 NIL_382    0.000
5513 HH 12.060 34.558 12.943 hn 382 NIL_382    0.000
5514 N 13.340 24.705 -11.955 n 383 NIL_383    0.000
5515 C_2355 12.407 23.684 -11.644 c3 383 NIL_383    0.000
5516 C_2358 13.969 24.998 -10.544 c3 383 NIL_383    0.000
5517 C_2356 11.852 23.971 -10.202 c3 383 NIL_383    0.000
5518 C_2360 11.424 23.426 -12.778 c 383 NIL_383    0.000
5519 C_2357 12.948 24.733 -9.381 c3 383 NIL_383    0.000
5520 O 10.368 22.866 -12.568 o 383 NIL_383    0.000
5521 N 12.419 26.001 -8.829 n 383 NIL_383    0.000
5522 C_2369 13.511 23.875 -8.179 c 383 NIL_383    0.000
5523 O 14.256 22.943 -8.399 o 383 NIL_383    0.000
5524 H_23561 10.965 24.606 -10.273 hc 383 NIL_383    0.000
5525 H_23562 11.569 23.042 -9.702 hc 383 NIL_383    0.000
5526 H_23581 14.335 26.049 -10.472 h1 383 NIL_383    0.000
5527 H_23582 14.853 24.474 -10.475 h1 383 NIL_383    0.000
5528 H_2355 13.004 22.770 -11.583 h1 383 NIL_383    0.000
5529 O 20.326 30.284 15.385 o 384 NIL_384    0.000
5530 C_3865 20.954 30.649 16.307 c 384 NIL_384    0.000
5531 C_3861 20.240 31.346 17.447 c3 384 NIL_384    0.000
5532 N 21.099 32.299 18.120 n 384 NIL_384    0.000
5533 C_3862 18.958 32.114 17.053 c3 384 NIL_384    0.000
5534 C_3864 20.284 33.407 18.632 c3 384 NIL_384    0.000
5535 C_3863 18.904 33.393 17.927 c3 384 NIL_384    0.000
5536 N 18.794 34.591 17.083 n 384 NIL_384    0.000
5537 C_3869 17.790 33.312 18.969 c 384 NIL_384    0.000
5538 H 19.632 34.855 16.588 hn 384 NIL_384    0.000
5539 O 17.866 32.566 19.923 o 384 NIL_384    0.000
5540 H_38641 20.792 34.355 18.438 h1 384 NIL_384    0.000
5541 H_38642 20.150 33.282 19.710 h1 384 NIL_384    0.000
5542 H_38621 19.020 32.400 16.001 hc 384 NIL_384    0.000
5543 H_38622 18.068 31.496 17.194 hc 384 NIL_384    0.000
5544 H_3861 19.985 30.572 18.176 h1 384 NIL_384    0.000
5545 C_2376 13.841 23.407 9.084 c3 385 NIL_385    0.000
5546 C_2372 12.535 23.679 8.315 c 385 NIL_385    0.000
5547 NH 14.947 23.759 8.150 n 385 NIL_385    0.000
5548 C_2388 14.046 24.039 10.586 c3 385 NIL_385    0.000
5549 O 11.491 23.778 8.927 o 385 NIL_385    0.000
5550 C_2396 13.436 23.526 12.023 c3 385 NIL_385    0.000
5551 NH 14.245 22.645 12.882 n 385 NIL_385    0.000
5552 H_23961 13.234 24.418 12.620 h1 385 NIL_385    0.000
5553 H_23962 12.475 23.038 11.843 h1 385 NIL_385    0.000
5554 H_23881 13.741 25.084 10.497 hc 385 NIL_385    0.000
5555 H_23882 15.126 24.083 10.741 hc 385 NIL_385    0.000
5556 H_2376 13.879 22.319 9.188 h1 385 NIL_385    0.000
5557 HH 14.235 21.656 12.679 hn 385 NIL_385    0.000
5558 HH 15.854 23.801 8.591 hn 385 NIL_385    0.000
5559 N 13.614 33.271 2.893 n 386 NIL_386    0.000
5560 C_1312 13.434 34.517 3.408 c3 386 NIL_386    0.000
5561 C_1315 14.184 32.691 4.983 c3 386 NIL_386    0.000
5562 C_1313 13.823 34.811 4.913 c3 386 NIL_386    0.000
5563 C_1317 14.116 35.275 2.330 c 386 NIL_386    0.000
5564 C_1314 13.639 33.588 5.802 c3 386 NIL_386    0.000
5565 O 14.573 36.382 2.530 o 386 NIL_386    0.000
5566 N 12.329 33.622 6.599 n 386 NIL_386    0.000
5567 C_1320 14.749 33.413 6.799 c 386 NIL_386    0.000
5568 O 15.880 33.321 6.369 o 386 NIL_386    0.000
5569 H_13131 14.887 35.043 4.928 hc 386 NIL_386    0.000
5570 H_13132 13.282 35.673 5.310 hc 386 NIL_386    0.000
5571 H_13151 14.554 31.878 4.651 h1 386 NIL_386    0.000
5572 H_13152 11.996 31.026 5.223 h1 386 NIL_386    0.000
5573 H_1312 12.386 34.884 3.057 h1 386 NIL_386    0.000
5574 N 14.725 33.096 -12.060 n 387 NIL_387    0.000
5575 C_1302 13.702 34.086 -11.845 c3 387 NIL_387    0.000
5576 C_1305 14.970 32.475 -10.705 c3 387 NIL_387    0.000
5577 C_1303 13.683 34.462 -10.315 c3 387 NIL_387    0.000
5578 C_1307 13.797 35.205 -12.876 c 387 NIL_387    0.000
5579 C_1304 14.522 33.420 -9.498 c3 387 NIL_387    0.000
5580 O 13.397 36.324 -12.628 o 387 NIL_387    0.000
5581 N 15.694 34.099 -8.914 n 387 NIL_387    0.000
5582 C_1316 13.771 32.715 -8.305 c 387 NIL_387    0.000
5583 O 13.064 31.749 -8.507 o 387 NIL_387    0.000
5584 H_13031 14.120 35.454 -10.175 hc 387 NIL_387    0.000
5585 H_13032 12.654 34.493 -9.951 hc 387 NIL_387    0.000
5586 H_13051 15.805 32.334 -10.765 h1 387 NIL_387    0.000
5587 H_13052 14.401 31.545 -10.658 h1 387 NIL_387    0.000
5588 H_1302 12.753 33.589 -12.067 h1 387 NIL_387    0.000
5589 N 13.472 23.750 3.363 n 388 NIL_388    0.000
5590 C_2365 12.903 25.010 3.762 c3 388 NIL_388    0.000
5591 C_2368 13.714 23.022 4.679 c3 388 NIL_388    0.000
5592 C_2366 13.498 25.330 5.177 c3 388 NIL_388    0.000
5593 C_2370 13.030 26.072 2.684 c 388 NIL_388    0.000
5594 C_2367 13.641 23.986 5.962 c3 388 NIL_388    0.000
5595 O 12.983 27.252 2.965 o 388 NIL_388    0.000
5596 N 12.514 23.803 6.934 n 388 NIL_388    0.000
5597 C_2373 14.937 23.973 6.787 c 388 NIL_388    0.000
5598 O 15.994 24.183 6.227 o 388 NIL_388    0.000
5599 H_23661 14.482 25.780 5.052 hc 388 NIL_388    0.000
5600 H_23662 12.991 26.058 5.765 hc 388 NIL_388    0.000
5601 H_23681 14.701 22.557 4.636 h1 388 NIL_388    0.000
5602 H_23682 12.968 22.230 4.784 h1 388 NIL_388    0.000
5603 H_2365 11.829 24.838 3.877 h1 388 NIL_388    0.000
5604 C_3514 24.080 26.997 4.541 c3 389 NIL_389    0.000
5605 C_3013 23.858 28.709 4.248 c3 389 NIL_389    0.000
5606 C_3012 24.135 29.174 5.571 c3 389 NIL_389    0.000
5607 H_30121 25.118 28.833 5.906 h1 389 NIL_389    0.000
5608 H_30122 24.130 30.267 5.541 h1 389 NIL_389    0.000
5609 H_30131 24.656 28.921 3.485 hc 389 NIL_389    0.000
5610 H_30132 22.934 29.045 3.790 hc 389 NIL_389    0.000
5611 H_35141 24.694 26.656 4.581 hc 389 NIL_389    0.000
5612 H_35142 23.968 26.460 3.198 hc 389 NIL_389    0.000
5613 H_35143 23.535 27.139 4.302 hc 389 NIL_389    0.000
5614 C_1415 13.619 32.510 -5.656 c3 390 NIL_390    0.000
5615 C_1414 13.975 33.451 -4.413 c3 390 NIL_390    0.000
5616 N 14.046 33.130 -6.983 n 390 NIL_390    0.000
5617 C_1413 15.046 34.305 -5.159 c3 390 NIL_390    0.000
5618 N 12.824 34.292 -3.985 n 390 NIL_390    0.000
5619 C_1426 14.624 32.811 -3.127 c 390 NIL_390    0.000
5620 C_1412 14.668 34.376 -6.676 c3 390 NIL_390    0.000
5621 O 15.683 32.221 -3.209 o 390 NIL_390    0.000
5622 C_1417 15.817 34.595 -7.649 c 390 NIL_390    0.000
5623 O 16.839 35.152 -7.305 o 390 NIL_390    0.000
5624 H_1412 13.968 35.198 -6.835 h1 390 NIL_390    0.000
5625 H_14131 16.009 33.797 -5.078 hc 390 NIL_390    0.000
5626 H_14132 15.148 35.296 -4.714 hc 390 NIL_390    0.000
5627 H_14151 14.199 31.591 -5.577 h1 390 NIL_390    0.000
5628 H_14152 12.771 32.128 -5.539 h1 390 NIL_390    0.000
5629 C_2285 15.064 21.976 15.088 c3 391 NIL_391    0.000
5630 C_766 14.688 23.063 14.094 c 391 NIL_391    0.000
5631 O 14.717 24.241 14.381 o 391 NIL_391    0.000
5632 H_22851 14.145 21.462 15.378 h1 391 NIL_391    0.000
5633 H_22852 15.713 21.269 14.562 h1 391 NIL_391    0.000
5634 N 14.047 32.995 -1.877 n 392 NIL_392    0.000
5635 C_1422 12.658 33.328 -1.694 c3 392 NIL_392    0.000
5636 C_1425 14.588 32.726 -0.490 c3 392 NIL_392    0.000
5637 C_1423 12.411 33.677 -0.174 c3 392 NIL_392    0.000
5638 C_1427 12.204 34.313 -2.765 c 392 NIL_392    0.000
5639 C_1424 13.704 33.391 0.664 c3 392 NIL_392    0.000
5640 O 11.318 35.116 -2.550 o 392 NIL_392    0.000
5641 C_1428 13.533 32.512 1.933 c 392 NIL_392    0.000
5642 N 14.268 34.682 1.108 n 392 NIL_392    0.000
5643 O 13.420 31.296 1.856 o 392 NIL_392    0.000
5644 H_14231 12.138 34.731 -0.078 hc 392 NIL_392    0.000
5645 H_14232 11.579 33.081 0.209 hc 392 NIL_392    0.000
5646 H_14251 15.616 33.090 -0.425 h1 392 NIL_392    0.000
5647 H_14252 14.591 31.643 -0.343 h1 392 NIL_392    0.000
5648 H_1422 12.100 32.414 -1.908 h1 392 NIL_392    0.000
5649 C_188 14.077 17.928 18.545 c3 393 NIL_393    0.000
5650 C_112 13.182 18.726 17.586 c3 393 NIL_393    0.000
5651 H_1121 13.210 18.274 16.591 h1 393 NIL_393    0.000
5652 H_1122 12.148 18.714 17.945 h1 393 NIL_393    0.000
5653 H_1881 13.705 16.907 18.654 hc 393 NIL_393    0.000
5654 H_1882 14.065 18.397 19.530 hc 393 NIL_393    0.000
5655 H_1883 15.112 17.891 18.190 hc 393 NIL_393    0.000
5656 N 21.642 25.107 18.984 n 394 NIL_394    0.000
5657 C_133 22.506 25.030 17.819 c3 394 NIL_394    0.000
5658 C_136 22.362 25.815 20.060 c3 394 NIL_394    0.000
5659 C_134 23.947 25.257 18.318 c3 394 NIL_394    0.000
5660 C_138 22.314 23.749 17.048 c 394 NIL_394    0.000
5661 C.fc 23.811 26.125 19.586 c3 394 NIL_394    0.000
5662 O 23.189 23.284 16.346 o 394 NIL_394    0.000
5663 NH 23.989 27.562 19.311 n 394 NIL_394    0.000
5664 H.fc 24.537 25.819 20.343 h1 394 NIL_394    0.000
5665 H_1341 24.565 25.742 17.562 hc 394 NIL_394    0.000
5666 H_1342 24.395 24.297 18.582 hc 394 NIL_394    0.000
5667 H_1361 22.392 25.166 20.940 h1 394 NIL_394    0.000
5668 H_1362 21.836 26.740 20.306 h1 394 NIL_394    0.000
5669 H_133 22.228 25.847 17.148 h1 394 NIL_394    0.000
5670 HH 23.159 28.028 18.977 hn 394 NIL_394    0.000
5671 C_737 11.225 24.913 19.716 c3 395 NIL_395    0.000
5672 C.fb 10.876 23.500 19.169 c3 395 NIL_395    0.000
5673 N 11.086 25.904 18.630 n 395 NIL_395    0.000
5674 C_735 10.231 23.826 17.806 c3 395 NIL_395    0.000
5675 NH 12.069 22.642 19.043 n 395 NIL_395    0.000
5676 C_734 10.806 25.197 17.396 c3 395 NIL_395    0.000
5677 C_739 9.922 25.985 16.462 c 395 NIL_395    0.000
5678 O 9.248 25.445 15.608 o 395 NIL_395    0.000
5679 H_734 11.760 25.049 16.880 h1 395 NIL_395    0.000
5680 H_7351 10.430 23.056 17.057 hc 395 NIL_395    0.000
5681 H_7352 9.149 23.917 17.936 hc 395 NIL_395    0.000
5682 H.fb 10.154 23.003 19.821 h1 395 NIL_395    0.000
5683 H_7371 10.530 25.177 20.516 h1 395 NIL_395    0.000
5684 H_7372 12.248 24.928 20.100 h1 395 NIL_395    0.000
5685 HH 12.901 23.119 18.732 hn 395 NIL_395    0.000
5686 C_2526 10.750 23.811 -4.857 c3 396 NIL_396    0.000
5687 C_2527 10.427 25.253 -5.312 c3 396 NIL_396    0.000
5688 C_3504 9.484 25.224 -6.531 c3 396 NIL_396    0.000
5689 H_35041 9.302 26.243 -6.881 hc 396 NIL_396    0.000
5690 H_35042 8.533 24.779 -6.239 hc 396 NIL_396    0.000
5691 H_35043 9.906 24.642 -7.354 hc 396 NIL_396    0.000
5692 H_25271 11.274 25.775 -5.598 hc 396 NIL_396    0.000
5693 H_25272 10.036 25.828 -4.529 hc 396 NIL_396    0.000
5694 H_25261 9.831 23.359 -4.480 h1 396 NIL_396    0.000
5695 H_25262 11.122 23.212 -5.695 h1 396 NIL_396    0.000
5696 C_2858 22.235 28.590 8.929 c3 397 NIL_397    0.000
5697 C_2854 23.253 29.046 7.866 c 397 NIL_397    0.000
5698 NH 21.413 27.524 8.291 n 397 NIL_397    0.000
5699 C_2870 22.900 28.377 10.421 c3 397 NIL_397    0.000
5700 O 24.205 29.716 8.210 o 397 NIL_397    0.000
5701 C_2878 22.144 28.553 11.868 c3 397 NIL_397    0.000
5702 NH 22.921 29.043 13.022 n 397 NIL_397    0.000
5703 H_28781 21.330 29.269 11.720 h1 397 NIL_397    0.000
5704 H_28782 21.688 27.599 12.143 h1 397 NIL_397    0.000
5705 H_28701 23.710 29.108 10.455 hc 397 NIL_397    0.000
5706 H_28702 23.396 27.405 10.425 hc 397 NIL_397    0.000
5707 H_2858 21.567 29.450 9.021 h1 397 NIL_397    0.000
5708 HH 23.927 28.961 13.010 hn 397 NIL_397    0.000
5709 HH 20.804 27.031 8.926 hn 397 NIL_397    0.000
5710 C_1478 14.955 35.360 0.014 c3 398 NIL_398    0.000
5711 C_1479 13.962 35.941 -1.005 c3 398 NIL_398    0.000
5712 C_3530 13.076 37.001 -0.336 c3 398 NIL_398    0.000
5713 H_35301 12.511 36.557 0.487 hc 398 NIL_398    0.000
5714 H_35302 12.371 37.416 -1.059 hc 398 NIL_398    0.000
5715 H_35303 13.694 37.811 0.057 hc 398 NIL_398    0.000
5716 H_14791 13.337 35.144 -1.409 hc 398 NIL_398    0.000
5717 H_14792 14.508 36.390 -1.836 hc 398 NIL_398    0.000
5718 H_14781 15.601 34.637 -0.486 h1 398 NIL_398    0.000
5719 H_14782 15.572 36.162 0.425 h1 398 NIL_398    0.000
5720 C_3010 22.386 25.013 0.349 c3 399 NIL_399    0.000
5721 C_3011 23.527 25.063 -0.679 c3 399 NIL_399    0.000
5722 C_3516 24.884 24.942 0.028 c3 399 NIL_399    0.000
5723 H_35161 25.018 25.763 0.736 hc 399 NIL_399    0.000
5724 H_35162 25.695 24.978 -0.702 hc 399 NIL_399    0.000
5725 H_35163 24.944 23.998 0.574 hc 399 NIL_399    0.000
5726 H_30111 23.484 26.000 -1.237 hc 399 NIL_399    0.000
5727 H_30112 23.412 24.244 -1.392 hc 399 NIL_399    0.000
5728 H_30101 21.426 25.054 -0.166 h1 399 NIL_399    0.000
5729 H_30102 22.447 24.071 0.900 h1 399 NIL_399    0.000
5730 C_1477 11.318 34.681 -5.933 c3 400 NIL_400    0.000
5731 C_1476 12.422 35.240 -5.024 c3 400 NIL_400    0.000
5732 C_3532 11.763 33.388 -6.628 c3 400 NIL_400    0.000
5733 H_35321 12.607 33.569 -7.205 hc 400 NIL_400    0.000
5734 H_35322 10.977 33.027 -7.293 hc 400 NIL_400    0.000
5735 H_35323 11.741 32.746 -5.976 hc 400 NIL_400    0.000
5736 H_14761 13.294 35.491 -5.627 h1 400 NIL_400    0.000
5737 H_14762 12.053 36.151 -4.543 h1 400 NIL_400    0.000
5738 H_14771 11.056 35.431 -6.685 hc 400 NIL_400    0.000
5739 H_14772 10.431 34.474 -5.330 hc 400 NIL_400    0.000
5740 C_1472 17.380 32.681 -9.999 c3 401 NIL_401    0.000
5741 C_1471 16.817 34.100 -9.844 c3 401 NIL_401    0.000
5742 C_3542 18.425 32.629 -11.120 c3 401 NIL_401    0.000
5743 H_35421 18.776 31.604 -11.256 hc 401 NIL_401    0.000
5744 H_35422 19.280 33.263 -10.873 hc 401 NIL_401    0.000
5745 H_35423 17.992 32.978 -12.060 hc 401 NIL_401    0.000
5746 H_14711 17.594 34.772 -9.473 h1 401 NIL_401    0.000
5747 H_14712 16.464 34.461 -10.813 h1 401 NIL_401    0.000
5748 H_14721 16.785 31.895 -10.082 hc 401 NIL_401    0.000
5749 H_14722 17.819 32.352 -9.058 hc 401 NIL_401    0.000
5750 C_660 26.790 30.616 17.915 c3 402 NIL_402    0.000
5751 C_662 26.870 31.830 18.853 c3 402 NIL_402    0.000
5752 H_6621 26.285 32.660 18.452 hc 402 NIL_402    0.000
5753 H_6622 27.902 32.166 18.958 hc 402 NIL_402    0.000
5754 H_6623 26.485 31.571 19.840 hc 402 NIL_402    0.000
5755 H_6601 27.214 30.884 16.943 h1 402 NIL_402    0.000
5756 H_6602 27.366 29.784 18.332 h1 402 NIL_402    0.000
5757 C_3009 24.212 28.542 -5.971 c3 403 NIL_403    0.000
5758 C_3008 24.185 27.362 -4.990 c3 403 NIL_403    0.000
5759 C_3518 22.867 28.745 -6.623 c3 403 NIL_403    0.000
5760 H_35181 22.527 28.524 -6.444 hc 403 NIL_403    0.000
5761 H_35182 22.859 27.892 -7.237 hc 403 NIL_403    0.000
5762 H_35183 22.844 29.564 -7.315 hc 403 NIL_403    0.000
5763 H_30081 23.924 26.445 -5.519 h1 403 NIL_403    0.000
5764 H_30082 25.174 27.235 -4.541 h1 403 NIL_403    0.000
5765 H_30091 24.959 28.360 -6.747 hc 403 NIL_403    0.000
5766 H_30092 24.492 29.455 -5.442 hc 403 NIL_403    0.000
5767 C_2299 11.868 33.497 15.307 c3 404 NIL_404    0.000
5768 C_309 12.772 33.068 14.169 c 404 NIL_404    0.000
5769 O 13.544 32.150 14.253 o 404 NIL_404    0.000
5770 H_22991 12.235 34.391 15.584 h1 404 NIL_404    0.000
5771 H_22992 10.878 33.616 14.883 h1 404 NIL_404    0.000
5772 C_769 11.771 35.626 16.534 c3 405 NIL_405    0.000
5773 C_770 11.264 35.733 15.079 c3 405 NIL_405    0.000
5774 H_7701 10.799 34.848 14.759 hc 405 NIL_405    0.000
5775 H_7702 12.094 35.951 14.403 hc 405 NIL_405    0.000
5776 H_7703 10.525 36.527 15.002 hc 405 NIL_405    0.000
5777 H_7691 12.513 34.825 16.696 h1 405 NIL_405    0.000
5778 H_7692 12.285 36.536 16.814 h1 405 NIL_405    0.000
5779 C_3691 2.634 45.361 -19.171 c2 406 NIL_406    0.000
5780 C_3689 3.321 46.525 -19.078 c2 406 NIL_406    0.000
5781 C_3693 2.821 44.295 -18.372 c2 406 NIL_406    0.000
5782 C_3585 4.274 46.757 -18.166 c2 406 NIL_406    0.000
5783 C_3695 3.773 44.537 -17.458 c2 406 NIL_406    0.000
5784 C_3705 1.997 42.905 -18.511 c3 406 NIL_406    0.000
5785 C_1296 5.105 47.988 -18.090 c 406 NIL_406    0.000
5786 C_3697 4.460 45.699 -17.360 c2 406 NIL_406    0.000
5787 NH 2.540 41.681 -17.681 n 406 NIL_406    0.000
5788 O 5.035 48.863 -18.930 o 406 NIL_406    0.000
5789 C_2350 3.584 40.747 -17.888 c 406 NIL_406    0.000
5790 C_2345 3.865 39.513 -16.891 c3 406 NIL_406    0.000
5791 O 4.306 40.880 -18.855 o 406 NIL_406    0.000
5792 N 4.950 38.432 -17.016 n 406 NIL_406    0.000
5793 C_2346 4.062 40.078 -15.396 c3 406 NIL_406    0.000
5794 C_2348 5.508 38.262 -15.617 c3 406 NIL_406    0.000
5795 C_2347 4.625 38.942 -14.493 c3 406 NIL_406    0.000
5796 N 3.499 38.095 -14.050 n 406 NIL_406    0.000
5797 C_2359 5.421 39.448 -13.228 c 406 NIL_406    0.000
5798 C_3508 2.609 37.798 -15.168 c3 406 NIL_406    0.000
5799 O 6.328 40.243 -13.366 o 406 NIL_406    0.000
5800 C_3510 1.887 39.057 -15.675 c3 406 NIL_406    0.000
5801 C_3512 1.062 39.704 -14.576 c3 406 NIL_406    0.000
5802 H_35121 0.326 38.995 -14.193 hc 406 NIL_406    0.000
5803 H_35122 0.537 40.581 -14.962 hc 406 NIL_406    0.000
5804 H_35123 1.708 40.019 -13.754 hc 406 NIL_406    0.000
5805 H_35101 1.255 38.793 -16.528 hc 406 NIL_406    0.000
5806 H_35102 2.582 39.796 -16.017 hc 406 NIL_406    0.000
5807 H_35081 1.866 37.066 -14.844 h1 406 NIL_406    0.000
5808 H_35082 3.202 37.361 -15.975 h1 406 NIL_406    0.000
5809 H_23481 6.467 38.731 -15.570 h1 406 NIL_406    0.000
5810 H_23482 5.622 37.197 -15.400 h1 406 NIL_406    0.000
5811 H_23461 4.769 40.891 -15.446 hc 406 NIL_406    0.000
5812 H_23462 3.120 40.480 -14.982 hc 406 NIL_406    0.000
5813 H_2345 2.903 38.951 -16.908 h1 406 NIL_406    0.000
5814 H_3697 5.210 45.765 -16.609 ha 406 NIL_406    0.000
5815 H_37051 0.964 43.082 -18.202 h1 406 NIL_406    0.000
5816 H_37052 1.981 42.610 -19.564 h1 406 NIL_406    0.000
5817 H_3695 4.016 43.743 -16.756 ha 406 NIL_406    0.000
5818 H_3689 3.095 47.312 -19.795 ha 406 NIL_406    0.000
5819 H_3691 1.884 45.276 -19.952 ha 406 NIL_406    0.000
5820 HH 1.995 41.512 -16.848 hn 406 NIL_406    0.000
5821 C_3522 15.727 40.681 -15.152 c3 407 NIL_407    0.000
5822 N 14.885 41.228 -14.095 n 407 NIL_407    0.000
5823 C_3524 17.115 40.337 -14.604 c3 407 NIL_407    0.000
5824 C_2829 13.518 41.522 -14.579 c3 407 NIL_407    0.000
5825 C_3526 17.792 41.616 -14.091 c3 407 NIL_407    0.000
5826 C_2828 13.013 40.370 -15.505 c3 407 NIL_407    0.000
5827 C_2830 13.497 42.659 -15.683 c3 407 NIL_407    0.000
5828 C_2841 12.583 41.717 -13.328 c 407 NIL_407    0.000
5829 C_2827 13.480 40.601 -16.991 c3 407 NIL_407    0.000
5830 N 13.753 42.135 -17.087 n 407 NIL_407    0.000
5831 O 11.380 41.783 -13.477 o 407 NIL_407    0.000
5832 C_2832 12.489 39.786 -17.970 c 407 NIL_407    0.000
5833 O 12.018 40.341 -18.942 o 407 NIL_407    0.000
5834 NH 12.158 38.431 -17.731 n 407 NIL_407    0.000
5835 C_3643 11.334 37.365 -18.544 c3 407 NIL_407    0.000
5836 C_3631 9.716 37.392 -18.382 c2 407 NIL_407    0.000
5837 C_3629 8.868 36.828 -19.259 c2 407 NIL_407    0.000
5838 C_3633 9.049 37.975 -17.373 c2 407 NIL_407    0.000
5839 C_3627 7.516 36.850 -19.151 c2 407 NIL_407    0.000
5840 C_3635 7.697 38.001 -17.263 c2 407 NIL_407    0.000
5841 C_2378 6.856 37.443 -18.147 c2 407 NIL_407    0.000
5842 C_2349 5.371 37.557 -18.067 c 407 NIL_407    0.000
5843 O 4.659 37.144 -18.958 o 407 NIL_407    0.000
5844 H_3635 7.301 38.514 -16.446 ha 407 NIL_407    0.000
5845 H_3627 6.934 36.377 -19.937 ha 407 NIL_407    0.000
5846 H_3633 9.630 38.471 -16.600 ha 407 NIL_407    0.000
5847 H_3629 9.297 36.327 -20.123 ha 407 NIL_407    0.000
5848 H_36431 11.698 36.376 -18.256 h1 407 NIL_407    0.000
5849 H_36432 11.573 37.506 -19.601 h1 407 NIL_407    0.000
5850 H_2827 14.452 40.115 -17.104 h1 407 NIL_407    0.000
5851 H_28301 12.514 43.125 -15.667 h1 407 NIL_407    0.000
5852 H_28302 14.243 43.420 -15.436 h1 407 NIL_407    0.000
5853 H_28281 11.922 40.384 -15.494 hc 407 NIL_407    0.000
5854 H_28282 13.339 39.397 -15.135 hc 407 NIL_407    0.000
5855 H_35261 18.761 41.383 -13.648 hc 407 NIL_407    0.000
5856 H_35262 17.181 42.118 -13.346 hc 407 NIL_407    0.000
5857 H_35263 17.939 42.316 -14.912 hc 407 NIL_407    0.000
5858 H_35241 17.725 39.886 -15.388 hc 407 NIL_407    0.000
5859 H_35242 17.014 39.615 -13.791 hc 407 NIL_407    0.000
5860 H_35221 15.822 41.427 -15.946 h1 407 NIL_407    0.000
5861 H_35222 15.253 39.784 -15.558 h1 407 NIL_407    0.000
5862 HH 12.564 38.045 -16.891 hn 407 NIL_407    0.000
5863 N 3.497 38.093 -3.788 n 408 NIL_408    0.000
5864 C_2464 4.790 38.632 -4.267 c3 408 NIL_408    0.000
5865 C_2463 4.504 39.955 -5.013 c3 408 NIL_408    0.000
5866 C_2465 5.381 37.857 -5.542 c3 408 NIL_408    0.000
5867 C_2476 5.761 38.834 -3.038 c 408 NIL_408    0.000
5868 C_2462 4.112 39.480 -6.538 c3 408 NIL_408    0.000
5869 N 4.933 38.472 -6.860 n 408 NIL_408    0.000
5870 O 6.865 39.309 -3.217 o 408 NIL_408    0.000
5871 C_2467 3.889 40.597 -7.529 c 408 NIL_408    0.000
5872 O 3.530 41.718 -7.235 o 408 NIL_408    0.000
5873 H_2462 3.067 39.032 -6.433 h1 408 NIL_408    0.000
5874 H_24651 6.472 37.897 -5.501 h1 408 NIL_408    0.000
5875 H_24652 5.067 36.809 -5.515 h1 408 NIL_408    0.000
5876 H_24631 5.376 40.567 -5.083 hc 408 NIL_408    0.000
5877 H_24632 3.699 40.538 -4.517 hc 408 NIL_408    0.000
5878 C_268 7.364 50.445 18.154 c3 409 NIL_409    0.000
5879 C_267 8.201 49.249 17.661 c3 409 NIL_409    0.000
5880 C.fa 6.601 49.937 19.396 c3 409 NIL_409    0.000
5881 N 8.489 48.446 18.833 n 409 NIL_409    0.000
5882 C_272 9.442 49.638 16.899 c 409 NIL_409    0.000
5883 C_270 7.450 48.713 19.845 c3 409 NIL_409    0.000
5884 NH 5.211 49.551 19.098 n 409 NIL_409    0.000
5885 O 9.471 50.610 16.172 o 409 NIL_409    0.000
5886 H_2701 7.932 48.923 20.802 h1 409 NIL_409    0.000
5887 H_2702 6.813 47.831 19.948 h1 409 NIL_409    0.000
5888 H.fa 6.595 50.704 20.175 h1 409 NIL_409    0.000
5889 H_267 7.596 48.635 16.987 h1 409 NIL_409    0.000
5890 H_2681 6.687 50.819 17.383 hc 409 NIL_409    0.000
5891 H_2682 8.039 51.248 18.456 hc 409 NIL_409    0.000
5892 HH 5.117 48.636 18.694 hn 409 NIL_409    0.000
5893 C_2530 2.990 38.361 6.275 c3 410 NIL_410    0.000
5894 C_2531 2.822 39.855 5.962 c3 410 NIL_410    0.000
5895 C_3500 1.506 40.101 5.216 c3 410 NIL_410    0.000
5896 H_35001 1.496 39.551 4.273 hc 410 NIL_410    0.000
5897 H_35002 1.385 41.165 5.001 hc 410 NIL_410    0.000
5898 H_35003 0.660 39.768 5.822 hc 410 NIL_410    0.000
5899 H_25311 3.528 40.183 5.301 hc 410 NIL_410    0.000
5900 H_25312 2.833 40.427 6.892 hc 410 NIL_410    0.000
5901 H_25301 2.179 38.037 6.932 h1 410 NIL_410    0.000
5902 H_25302 2.945 37.786 5.347 h1 410 NIL_410    0.000
5903 C_728 1.712 48.409 17.034 c3 411 NIL_411    0.000
5904 C_727 2.614 47.248 17.499 c3 411 NIL_411    0.000
5905 N 2.397 49.655 17.436 n3 411 NIL_411    0.000
5906 C_726 3.388 47.908 18.667 c3 411 NIL_411    0.000
5907 N 3.505 46.810 16.402 n 411 NIL_411    0.000
5908 C_738 1.779 46.091 18.030 c 411 NIL_411    0.000
5909 C_725 2.906 49.377 18.786 c3 411 NIL_411    0.000
5910 O 0.694 46.260 18.547 o 411 NIL_411    0.000
5911 C_729 4.053 50.250 19.279 c 411 NIL_411    0.000
5912 O 3.972 51.371 19.737 o 411 NIL_411    0.000
5913 H_725 2.085 49.436 19.506 h1 411 NIL_411    0.000
5914 H_7261 4.452 47.882 18.441 hc 411 NIL_411    0.000
5915 H_7262 3.223 47.372 19.604 hc 411 NIL_411    0.000
5916 H_7281 1.537 48.381 15.956 h1 411 NIL_411    0.000
5917 H_7282 0.757 48.350 17.561 h1 411 NIL_411    0.000
5918 C_2960 13.192 42.551 1.953 c 412 NIL_412    0.000
5919 C_2956 13.696 41.679 0.739 c3 412 NIL_412    0.000
5920 O 12.383 43.438 1.768 o 412 NIL_412    0.000
5921 C_2955 14.829 42.335 -0.114 c3 412 NIL_412    0.000
5922 C_2957 12.631 41.431 -0.431 c3 412 NIL_412    0.000
5923 N 14.203 40.406 1.305 n 412 NIL_412    0.000
5924 C_2954 14.352 42.521 -1.599 c3 412 NIL_412    0.000
5925 N 13.188 41.703 -1.814 n 412 NIL_412    0.000
5926 C_2959 15.381 42.304 -2.695 c 412 NIL_412    0.000
5927 O 16.562 42.489 -2.484 o 412 NIL_412    0.000
5928 H_2954 14.015 43.554 -1.712 h1 412 NIL_412    0.000
5929 H_29571 12.271 40.401 -0.388 h1 412 NIL_412    0.000
5930 H_29572 11.777 42.096 -0.274 h1 412 NIL_412    0.000
5931 H_29551 15.698 41.673 -0.103 hc 412 NIL_412    0.000
5932 H_29552 15.129 43.292 0.312 hc 412 NIL_412    0.000
5933 N 9.557 36.717 18.082 n 413 NIL_413    0.000
5934 C_3832 9.307 37.974 17.403 c3 413 NIL_413    0.000
5935 C_3835 10.947 36.695 18.570 c3 413 NIL_413    0.000
5936 C_3833 10.692 38.542 17.022 c3 413 NIL_413    0.000
5937 C_3837 8.362 37.801 16.234 c 413 NIL_413    0.000
5938 C_3834 11.726 37.894 17.969 c3 413 NIL_413    0.000
5939 O 8.411 38.510 15.250 o 413 NIL_413    0.000
5940 N 12.881 37.402 17.204 n 413 NIL_413    0.000
5941 C_3841 12.152 38.854 19.074 c 413 NIL_413    0.000
5942 H 12.747 36.535 16.705 hn 413 NIL_413    0.000
5943 O 11.448 39.071 20.039 o 413 NIL_413    0.000
5944 H_38331 10.928 38.245 15.999 hc 413 NIL_413    0.000
5945 H_38332 10.715 39.632 17.086 hc 413 NIL_413    0.000
5946 H_38351 11.421 35.760 18.261 h1 413 NIL_413    0.000
5947 H_38352 10.953 36.765 19.661 h1 413 NIL_413    0.000
5948 H_3832 8.822 38.645 18.116 h1 413 NIL_413    0.000
5949 C_3502 6.976 42.223 1.314 c3 414 NIL_414    0.000
5950 C_2529 6.457 41.472 0.080 c3 414 NIL_414    0.000
5951 C_2528 5.024 40.978 0.324 c3 414 NIL_414    0.000
5952 H_25281 4.392 41.825 0.600 h1 414 NIL_414    0.000
5953 H_25282 4.637 40.535 -0.597 h1 414 NIL_414    0.000
5954 H_25291 6.473 42.141 -0.782 hc 414 NIL_414    0.000
5955 H_25292 7.126 40.658 -0.134 hc 414 NIL_414    0.000
5956 H_35021 6.991 41.562 2.182 hc 414 NIL_414    0.000
5957 H_35022 6.330 43.074 1.538 hc 414 NIL_414    0.000
5958 H_35023 7.988 42.592 1.139 hc 414 NIL_414    0.000
5959 C_3887 1.582 43.584 18.124 c3 415 NIL_415    0.000
5960 C_3886 2.426 42.395 17.593 c3 415 NIL_415    0.000
5961 N 2.281 44.849 17.846 n 415 NIL_415    0.000
5962 C_3885 3.603 43.099 16.873 c3 415 NIL_415    0.000
5963 N 1.632 41.614 16.632 n 415 NIL_415    0.000
5964 C_3892 2.908 41.541 18.764 c 415 NIL_415    0.000
5965 C_3884 3.616 44.567 17.356 c3 415 NIL_415    0.000
5966 H 1.026 42.146 16.025 hn 415 NIL_415    0.000
5967 O 3.271 42.039 19.810 o 415 NIL_415    0.000
5968 C_3888 4.052 45.573 16.311 c 415 NIL_415    0.000
5969 O 4.786 45.256 15.418 o 415 NIL_415    0.000
5970 H_3884 4.301 44.663 18.202 h1 415 NIL_415    0.000
5971 H_38851 3.421 43.081 15.795 hc 415 NIL_415    0.000
5972 H_38852 4.555 42.603 17.070 hc 415 NIL_415    0.000
5973 H_38871 0.611 43.599 17.623 h1 415 NIL_415    0.000
5974 H_38872 1.430 43.486 19.201 h1 415 NIL_415    0.000
5975 C_2292 14.863 44.257 15.312 c3 416 NIL_416    0.000
5976 C_243 14.029 43.818 14.116 c 416 NIL_416    0.000
5977 O 12.855 43.868 14.068 o 416 NIL_416    0.000
5978 H_22921 15.415 43.385 15.673 h1 416 NIL_416    0.000
5979 H_22922 15.570 45.014 14.964 h1 416 NIL_416    0.000
5980 C_2474 5.069 38.608 0.838 c3 417 NIL_417    0.000
5981 C_2473 3.771 38.193 0.059 c3 417 NIL_417    0.000
5982 C_2475 6.076 38.642 -0.408 c3 417 NIL_417    0.000
5983 C_2478 5.394 37.633 2.040 c 417 NIL_417    0.000
5984 N 4.956 39.977 1.386 n 417 NIL_417    0.000
5985 C_2472 4.170 37.785 -1.405 c3 417 NIL_417    0.000
5986 N 5.364 38.511 -1.741 n 417 NIL_417    0.000
5987 O 5.815 36.516 1.816 o 417 NIL_417    0.000
5988 C_2477 3.114 37.846 -2.499 c 417 NIL_417    0.000
5989 O 1.944 37.655 -2.240 o 417 NIL_417    0.000
5990 H_2472 4.472 36.735 -1.369 h1 417 NIL_417    0.000
5991 H_24751 6.626 39.543 -0.400 h1 417 NIL_417    0.000
5992 H_24752 6.775 37.806 -0.324 h1 417 NIL_417    0.000
5993 H_24731 3.095 39.050 0.018 hc 417 NIL_417    0.000
5994 H_24732 3.252 37.374 0.564 hc 417 NIL_417    0.000
5995 C_2521 3.949 41.283 -9.880 c3 418 NIL_418    0.000
5996 C_2522 5.076 41.421 -10.878 c3 418 NIL_418    0.000
5997 C_3506 6.401 41.827 -10.114 c3 418 NIL_418    0.000
5998 H_35061 6.660 41.080 -9.347 hc 418 NIL_418    0.000
5999 H_35062 6.233 42.775 -9.643 hc 418 NIL_418    0.000
6000 H_35063 7.232 41.899 -10.814 hc 418 NIL_418    0.000
6001 H_25221 4.899 42.073 -11.654 hc 418 NIL_418    0.000
6002 H_25222 5.194 40.475 -11.441 hc 418 NIL_418    0.000
6003 H_25211 3.808 42.261 -9.415 h1 418 NIL_418    0.000
6004 H_25212 3.040 41.019 -10.426 h1 418 NIL_418    0.000
6005 C_111 6.818 34.490 17.069 c3 419 NIL_419    0.000
6006 C_110 7.335 35.882 17.484 c3 419 NIL_419    0.000
6007 N 5.407 34.403 17.497 n3 419 NIL_419    0.000
6008 C_109 6.224 36.364 18.458 c3 419 NIL_419    0.000
6009 N 7.504 36.755 16.297 n 419 NIL_419    0.000
6010 C_137 8.642 35.735 18.249 c 419 NIL_419    0.000
6011 C_108 5.318 35.142 18.763 c3 419 NIL_419    0.000
6012 O 8.875 34.762 18.934 o 419 NIL_419    0.000
6013 C_113 3.921 35.579 19.198 c 419 NIL_419    0.000
6014 O 3.020 34.853 19.566 o 419 NIL_419    0.000
6015 H_108 5.760 34.555 19.572 h1 419 NIL_419    0.000
6016 H_1091 5.634 37.140 17.961 hc 419 NIL_419    0.000
6017 H_1092 6.645 36.785 19.375 hc 419 NIL_419    0.000
6018 H_1111 6.912 34.342 15.990 h1 419 NIL_419    0.000
6019 H_1112 7.393 33.726 17.598 h1 419 NIL_419    0.000
6020 C_2855 12.970 41.561 6.943 c 420 NIL_420    0.000
6021 C_2849 13.885 42.142 5.845 c3 420 NIL_420    0.000
6022 O 12.071 40.811 6.620 o 420 NIL_420    0.000
6023 C_2848 14.045 40.579 5.823 c3 420 NIL_420    0.000
6024 C_2850 13.141 42.812 4.593 c3 420 NIL_420    0.000
6025 N 14.881 43.009 6.529 n 420 NIL_420    0.000
6026 C_2847 14.112 41.510 3.289 c3 420 NIL_420    0.000
6027 N 13.601 42.261 3.243 n 420 NIL_420    0.000
6028 C_2852 14.560 40.079 2.443 c 420 NIL_420    0.000
6029 O 15.160 39.121 2.866 o 420 NIL_420    0.000
6030 H_2847 15.595 42.278 2.942 h1 420 NIL_420    0.000
6031 H_28501 12.071 42.624 4.674 h1 420 NIL_420    0.000
6032 H_28502 13.307 43.894 4.611 h1 420 NIL_420    0.000
6033 H_28481 13.924 40.084 5.145 hc 420 NIL_420    0.000
6034 H_28482 15.506 40.586 5.731 hc 420 NIL_420    0.000
6035 C_3520 14.011 37.232 -8.932 c3 421 NIL_421    0.000
6036 C_3007 12.659 37.732 -9.469 c3 421 NIL_421    0.000
6037 C_3006 12.794 39.160 -10.017 c3 421 NIL_421    0.000
6038 H_30061 13.497 39.171 -10.853 h1 421 NIL_421    0.000
6039 H_30062 11.819 39.505 -10.372 h1 421 NIL_421    0.000
6040 H_30071 12.310 37.062 -10.256 hc 421 NIL_421    0.000
6041 H_30072 11.921 37.719 -8.665 hc 421 NIL_421    0.000
6042 H_35201 14.475 37.878 -8.233 hc 421 NIL_421    0.000
6043 H_35202 14.742 37.161 -9.732 hc 421 NIL_421    0.000
6044 H_35203 13.891 36.248 -8.475 hc 421 NIL_421    0.000
6045 C_262 16.857 42.623 19.435 c 422 NIL_422    0.000
6046 C_257 16.513 44.033 18.979 c3 422 NIL_422    0.000
6047 O 17.938 42.228 19.823 o 422 NIL_422    0.000
6048 N 17.138 44.497 17.737 n3 422 NIL_422    0.000
6049 C_258 15.009 44.106 18.625 c3 422 NIL_422    0.000
6050 C_260 16.287 45.596 17.231 c3 422 NIL_422    0.000
6051 C_259 14.828 45.247 17.599 c3 422 NIL_422    0.000
6052 N 14.050 44.813 16.414 n 422 NIL_422    0.000
6053 C_271 14.177 46.427 18.303 c 422 NIL_422    0.000
6054 O 14.819 47.217 18.965 o 422 NIL_422    0.000
6055 H_2601 16.405 45.723 16.153 h1 422 NIL_422    0.000
6056 H_2602 16.565 46.522 17.740 h1 422 NIL_422    0.000
6057 H_2581 14.704 43.165 18.163 hc 422 NIL_422    0.000
6058 H_2582 14.396 44.267 19.515 hc 422 NIL_422    0.000
6059 H_257 16.735 44.730 19.790 h1 422 NIL_422    0.000
6060 N 14.965 41.871 -3.923 n 423 NIL_423    0.000
6061 C_2946 13.584 41.567 -4.364 c3 423 NIL_423    0.000
6062 C_2945 13.562 40.246 -5.194 c3 423 NIL_423    0.000
6063 C_2947 13.056 42.497 -5.525 c3 423 NIL_423    0.000
6064 C_2958 12.678 41.424 -3.078 c 423 NIL_423    0.000
6065 C_2944 13.972 40.595 -6.660 c3 423 NIL_423    0.000
6066 N 13.100 41.808 -6.871 n 423 NIL_423    0.000
6067 O 11.550 40.984 -3.175 o 423 NIL_423    0.000
6068 C_2949 13.569 39.609 -7.739 c 423 NIL_423    0.000
6069 O 13.390 38.472 -7.429 o 423 NIL_423    0.000
6070 H_2944 15.061 40.677 -6.715 h1 423 NIL_423    0.000
6071 H_29471 12.031 42.630 -5.518 h1 423 NIL_423    0.000
6072 H_29472 13.196 43.930 -4.905 h1 423 NIL_423    0.000
6073 H_29451 12.539 39.863 -5.206 hc 423 NIL_423    0.000
6074 H_29452 14.212 39.484 -4.758 hc 423 NIL_423    0.000
6075 C_1480 2.917 48.087 5.729 c3 424 NIL_424    0.000
6076 C_1481 3.276 47.951 4.243 c3 424 NIL_424    0.000
6077 C_3528 3.923 46.588 3.972 c3 424 NIL_424    0.000
6078 H_35281 3.235 45.806 4.208 hc 424 NIL_424    0.000
6079 H_35282 4.712 46.779 4.088 hc 424 NIL_424    0.000
6080 H_35283 4.130 46.468 2.934 hc 424 NIL_424    0.000
6081 H_14811 3.877 48.622 4.243 hc 424 NIL_424    0.000
6082 H_14812 2.377 48.053 3.633 hc 424 NIL_424    0.000
6083 H_14801 2.488 49.075 5.912 h1 424 NIL_424    0.000
6084 H_14802 2.174 47.328 5.989 h1 424 NIL_424    0.000
6085 C_2948 13.258 42.410 -8.233 c 425 NIL_425    0.000
6086 C_2937 13.419 41.463 -9.481 c3 425 NIL_425    0.000
6087 O 12.938 43.569 -8.378 o 425 NIL_425    0.000
6088 C_2936 14.773 41.599 -10.259 c3 425 NIL_425    0.000
6089 C_2938 12.421 41.750 -10.696 c3 425 NIL_425    0.000
6090 N 13.276 40.077 -8.986 n 425 NIL_425    0.000
6091 C_2935 14.497 41.991 -11.758 c3 425 NIL_425    0.000
6092 N 13.109 41.743 -12.043 n 425 NIL_425    0.000
6093 C_2939 15.386 41.388 -12.833 c 425 NIL_425    0.000
6094 O 16.505 41.018 -12.560 o 425 NIL_425    0.000
6095 H_2935 14.631 43.073 -11.849 h1 425 NIL_425    0.000
6096 H_29381 11.620 41.007 -10.702 h1 425 NIL_425    0.000
6097 H_29382 11.975 42.738 -10.561 h1 425 NIL_425    0.000
6098 H_29361 15.292 40.638 -10.231 hc 425 NIL_425    0.000
6099 H_29362 15.417 42.342 -9.785 hc 425 NIL_425    0.000
6100 C_1297 8.808 47.926 -17.895 c 426 NIL_426    0.000
6101 C_1292 7.581 48.414 -16.958 c3 426 NIL_426    0.000
6102 O 8.597 47.108 -18.768 o 426 NIL_426    0.000
6103 NH 10.126 48.419 -17.734 n 426 NIL_426    0.000
6104 N 6.121 47.875 -17.090 n 426 NIL_426    0.000
6105 C_1293 7.948 48.170 -15.438 c3 426 NIL_426    0.000
6106 C_3668 11.472 48.219 -18.534 c3 426 NIL_426    0.000
6107 C_1295 5.793 47.300 -15.728 c3 426 NIL_426    0.000
6108 C_1294 6.662 47.934 -14.573 c3 426 NIL_426    0.000
6109 C_3656 12.264 46.808 -18.381 c2 426 NIL_426    0.000
6110 N 6.098 49.218 -14.098 n 426 NIL_426    0.000
6111 C_1306 6.942 47.026 -13.318 c 426 NIL_426    0.000
6112 C_3654 13.299 46.444 -19.159 c2 426 NIL_426    0.000
6113 C_3658 11.983 45.854 -17.478 c2 426 NIL_426    0.000
6114 C_3544 6.190 50.250 -15.127 c3 426 NIL_426    0.000
6115 O 7.629 46.031 -13.430 o 426 NIL_426    0.000
6116 C_3652 13.963 45.267 -19.064 c2 426 NIL_426    0.000
6117 C_3660 12.647 44.677 -17.376 c2 426 NIL_426    0.000
6118 C_3546 7.638 50.699 -15.361 c3 426 NIL_426    0.000
6119 C_3574 13.672 44.314 -18.164 c2 426 NIL_426    0.000
6120 C_3548 7.691 51.717 -16.507 c3 426 NIL_426    0.000
6121 C_2831 14.331 42.982 -18.090 c 426 NIL_426    0.000
6122 O 15.122 42.619 -18.937 o 426 NIL_426    0.000
6123 H_35481 7.110 52.605 -16.251 hc 426 NIL_426    0.000
6124 H_35482 7.278 51.280 -17.419 hc 426 NIL_426    0.000
6125 H_35483 8.722 52.016 -16.700 hc 426 NIL_426    0.000
6126 H_35461 8.222 49.938 -15.684 hc 426 NIL_426    0.000
6127 H_35462 8.039 51.143 -14.447 hc 426 NIL_426    0.000
6128 H_3660 12.314 43.978 -16.630 ha 426 NIL_426    0.000
6129 H_3652 14.771 45.077 -19.766 ha 426 NIL_426    0.000
6130 H_35441 5.590 51.110 -14.818 h1 426 NIL_426    0.000
6131 H_35442 5.778 49.851 -16.058 h1 426 NIL_426    0.000
6132 H_3658 11.161 46.034 -16.791 ha 426 NIL_426    0.000
6133 H_3654 13.619 47.142 -19.928 ha 426 NIL_426    0.000
6134 H_12951 6.008 46.234 -15.752 h1 426 NIL_426    0.000
6135 H_12952 4.730 47.448 -15.518 h1 426 NIL_426    0.000
6136 H_36681 12.151 49.020 -18.234 h1 426 NIL_426    0.000
6137 H_36682 11.244 48.365 -19.594 h1 426 NIL_426    0.000
6138 H_12931 8.572 47.280 -15.376 hc 426 NIL_426    0.000
6139 H_12932 8.567 48.907 -14.971 hc 426 NIL_426    0.000
6140 H_1292 7.525 49.496 -17.110 h1 426 NIL_426    0.000
6141 HH 10.229 49.084 -16.982 hn 426 NIL_426    0.000
6142 C_1343 5.304 47.738 11.869 c3 427 NIL_427    0.000
6143 NH 4.449 48.070 13.019 n 427 NIL_427    0.000
6144 C_1335 4.881 48.349 10.406 c3 427 NIL_427    0.000
6145 C_1323 5.056 47.604 8.950 c3 427 NIL_427    0.000
6146 C_1319 3.903 47.888 7.969 c 427 NIL_427    0.000
6147 NH 6.319 47.743 8.171 n 427 NIL_427    0.000
6148 O 2.789 48.087 8.408 o 427 NIL_427    0.000
6149 H_1323 4.959 46.534 9.150 h1 427 NIL_427    0.000
6150 H_13351 3.806 48.523 10.490 hc 427 NIL_427    0.000
6151 H_13352 5.319 49.347 10.325 hc 427 NIL_427    0.000
6152 H_13431 5.299 46.649 11.785 h1 427 NIL_427    0.000
6153 H_13432 6.328 48.045 12.099 h1 427 NIL_427    0.000
6154 HH 7.160 47.729 8.729 hn 427 NIL_427    0.000
6155 HH 3.810 48.847 12.943 hn 427 NIL_427    0.000
6156 N 5.090 38.994 -11.955 n 428 NIL_428    0.000
6157 C_2355 4.157 37.973 -11.644 c3 428 NIL_428    0.000
6158 C_2358 5.719 39.287 -10.544 c3 428 NIL_428    0.000
6159 C_2356 3.602 38.260 -10.202 c3 428 NIL_428    0.000
6160 C_2360 3.174 37.715 -12.778 c 428 NIL_428    0.000
6161 C_2357 4.698 39.022 -9.381 c3 428 NIL_428    0.000
6162 O 2.118 37.155 -12.568 o 428 NIL_428    0.000
6163 N 4.169 40.290 -8.829 n 428 NIL_428    0.000
6164 C_2369 5.261 38.164 -8.179 c 428 NIL_428    0.000
6165 O 6.006 37.232 -8.399 o 428 NIL_428    0.000
6166 H_23561 2.715 38.895 -10.273 hc 428 NIL_428    0.000
6167 H_23562 3.319 37.331 -9.702 hc 428 NIL_428    0.000
6168 H_23581 6.085 40.338 -10.472 h1 428 NIL_428    0.000
6169 H_23582 6.603 38.763 -10.475 h1 428 NIL_428    0.000
6170 H_2355 4.754 37.059 -11.583 h1 428 NIL_428    0.000
6171 O 12.076 44.573 15.385 o 429 NIL_429    0.000
6172 C_3865 12.704 44.938 16.307 c 429 NIL_429    0.000
6173 C_3861 11.990 45.635 17.447 c3 429 NIL_429    0.000
6174 N 12.849 46.588 18.120 n 429 NIL_429    0.000
6175 C_3862 10.708 46.403 17.053 c3 429 NIL_429    0.000
6176 C_3864 12.034 47.696 18.632 c3 429 NIL_429    0.000
6177 C_3863 10.654 47.682 17.927 c3 429 NIL_429    0.000
6178 N 10.544 48.880 17.083 n 429 NIL_429    0.000
6179 C_3869 9.540 47.601 18.969 c 429 NIL_429    0.000
6180 H 11.382 49.144 16.588 hn 429 NIL_429    0.000
6181 O 9.616 46.855 19.923 o 429 NIL_429    0.000
6182 H_38641 12.542 48.644 18.438 h1 429 NIL_429    0.000
6183 H_38642 11.900 47.571 19.710 h1 429 NIL_429    0.000
6184 H_38621 10.770 46.689 16.001 hc 429 NIL_429    0.000
6185 H_38622 9.818 45.785 17.194 hc 429 NIL_429    0.000
6186 H_3861 11.735 44.861 18.176 h1 429 NIL_429    0.000
6187 C_2376 5.591 37.696 9.084 c3 430 NIL_430    0.000
6188 C_2372 4.285 37.968 8.315 c 430 NIL_430    0.000
6189 NH 6.697 38.048 8.150 n 430 NIL_430    0.000
6190 C_2388 5.796 38.328 10.586 c3 430 NIL_430    0.000
6191 O 3.241 38.067 8.927 o 430 NIL_430    0.000
6192 C_2396 5.186 37.815 12.023 c3 430 NIL_430    0.000
6193 NH 5.995 36.934 12.882 n 430 NIL_430    0.000
6194 H_23961 4.984 38.707 12.620 h1 430 NIL_430    0.000
6195 H_23962 4.225 37.327 11.843 h1 430 NIL_430    0.000
6196 H_23881 5.491 39.373 10.497 hc 430 NIL_430    0.000
6197 H_23882 6.876 38.372 10.741 hc 430 NIL_430    0.000
6198 H_2376 5.629 36.608 9.188 h1 430 NIL_430    0.000
6199 HH 5.985 35.945 12.679 hn 430 NIL_430    0.000
6200 HH 7.604 38.090 8.591 hn 430 NIL_430    0.000
6201 N 5.364 47.560 2.893 n 431 NIL_431    0.000
6202 C_1312 5.184 48.806 3.408 c3 431 NIL_431    0.000
6203 C_1315 5.934 46.980 4.983 c3 431 NIL_431    0.000
6204 C_1313 5.573 49.100 4.913 c3 431 NIL_431    0.000
6205 C_1317 5.866 49.564 2.330 c 431 NIL_431    0.000
6206 C_1314 5.389 47.877 5.802 c3 431 NIL_431    0.000
6207 O 6.323 50.671 2.530 o 431 NIL_431    0.000
6208 N 4.079 47.911 6.599 n 431 NIL_431    0.000
6209 C_1320 6.499 47.702 6.799 c 431 NIL_431    0.000
6210 O 7.630 47.610 6.369 o 431 NIL_431    0.000
6211 H_13131 6.637 49.332 4.928 hc 431 NIL_431    0.000
6212 H_13132 5.032 49.962 5.310 hc 431 NIL_431    0.000
6213 H_13151 6.304 46.167 4.651 h1 431 NIL_431    0.000
6214 H_13152 3.746 45.315 5.223 h1 431 NIL_431    0.000
6215 H_1312 4.136 49.173 3.057 h1 431 NIL_431    0.000
6216 N 6.475 47.385 -12.060 n 432 NIL_432    0.000
6217 C_1302 5.452 48.375 -11.845 c3 432 NIL_432    0.000
6218 C_1305 6.720 46.764 -10.705 c3 432 NIL_432    0.000
6219 C_1303 5.433 48.751 -10.315 c3 432 NIL_432    0.000
6220 C_1307 5.547 49.494 -12.876 c 432 NIL_432    0.000
6221 C_1304 6.272 47.709 -9.498 c3 432 NIL_432    0.000
6222 O 5.147 50.613 -12.628 o 432 NIL_432    0.000
6223 N 7.444 48.388 -8.914 n 432 NIL_432    0.000
6224 C_1316 5.521 47.004 -8.305 c 432 NIL_432    0.000
6225 O 4.814 46.038 -8.507 o 432 NIL_432    0.000
6226 H_13031 5.870 49.743 -10.175 hc 432 NIL_432    0.000
6227 H_13032 4.404 48.782 -9.951 hc 432 NIL_432    0.000
6228 H_13051 7.555 46.623 -10.765 h1 432 NIL_432    0.000
6229 H_13052 6.151 45.834 -10.658 h1 432 NIL_432    0.000
6230 H_1302 4.503 47.878 -12.067 h1 432 NIL_432    0.000
6231 N 5.222 38.039 3.363 n 433 NIL_433    0.000
6232 C_2365 4.653 39.299 3.762 c3 433 NIL_433    0.000
6233 C_2368 5.464 37.311 4.679 c3 433 NIL_433    0.000
6234 C_2366 5.248 39.619 5.177 c3 433 NIL_433    0.000
6235 C_2370 4.780 40.361 2.684 c 433 NIL_433    0.000
6236 C_2367 5.391 38.275 5.962 c3 433 NIL_433    0.000
6237 O 4.733 41.541 2.965 o 433 NIL_433    0.000
6238 N 4.264 38.092 6.934 n 433 NIL_433    0.000
6239 C_2373 6.687 38.262 6.787 c 433 NIL_433    0.000
6240 O 7.744 38.472 6.227 o 433 NIL_433    0.000
6241 H_23661 6.232 40.069 5.052 hc 433 NIL_433    0.000
6242 H_23662 4.741 40.347 5.765 hc 433 NIL_433    0.000
6243 H_23681 6.451 36.846 4.636 h1 433 NIL_433    0.000
6244 H_23682 4.718 36.519 4.784 h1 433 NIL_433    0.000
6245 H_2365 3.579 39.127 3.877 h1 433 NIL_433    0.000
6246 C_3514 15.830 41.286 4.541 c3 434 NIL_434    0.000
6247 C_3013 15.608 42.998 4.248 c3 434 NIL_434    0.000
6248 C_3012 15.885 43.463 5.571 c3 434 NIL_434    0.000
6249 H_30121 16.868 43.122 5.906 h1 434 NIL_434    0.000
6250 H_30122 15.880 44.556 5.541 h1 434 NIL_434    0.000
6251 H_30131 16.406 43.210 3.485 hc 434 NIL_434    0.000
6252 H_30132 14.684 43.334 3.790 hc 434 NIL_434    0.000
6253 H_35141 16.444 40.945 4.581 hc 434 NIL_434    0.000
6254 H_35142 15.718 40.749 3.198 hc 434 NIL_434    0.000
6255 H_35143 15.285 41.428 4.302 hc 434 NIL_434    0.000
6256 C_1415 5.369 46.799 -5.656 c3 435 NIL_435    0.000
6257 C_1414 5.725 47.740 -4.413 c3 435 NIL_435    0.000
6258 N 5.796 47.419 -6.983 n 435 NIL_435    0.000
6259 C_1413 6.796 48.594 -5.159 c3 435 NIL_435    0.000
6260 N 4.574 48.581 -3.985 n 435 NIL_435    0.000
6261 C_1426 6.374 47.100 -3.127 c 435 NIL_435    0.000
6262 C_1412 6.418 48.665 -6.676 c3 435 NIL_435    0.000
6263 O 7.433 46.510 -3.209 o 435 NIL_435    0.000
6264 C_1417 7.567 48.884 -7.649 c 435 NIL_435    0.000
6265 O 8.589 49.441 -7.305 o 435 NIL_435    0.000
6266 H_1412 5.718 49.487 -6.835 h1 435 NIL_435    0.000
6267 H_14131 7.759 48.086 -5.078 hc 435 NIL_435    0.000
6268 H_14132 6.898 49.585 -4.714 hc 435 NIL_435    0.000
6269 H_14151 5.949 45.880 -5.577 h1 435 NIL_435    0.000
6270 H_14152 4.521 46.417 -5.539 h1 435 NIL_435    0.000
6271 C_2285 6.814 36.265 15.088 c3 436 NIL_436    0.000
6272 C_766 6.438 37.352 14.094 c 436 NIL_436    0.000
6273 O 6.467 38.530 14.381 o 436 NIL_436    0.000
6274 H_22851 5.895 35.751 15.378 h1 436 NIL_436    0.000
6275 H_22852 7.463 35.558 14.562 h1 436 NIL_436    0.000
6276 N 5.797 47.284 -1.877 n 437 NIL_437    0.000
6277 C_1422 4.408 47.617 -1.694 c3 437 NIL_437    0.000
6278 C_1425 6.338 47.015 -0.490 c3 437 NIL_437    0.000
6279 C_1423 4.161 47.966 -0.174 c3 437 NIL_437    0.000
6280 C_1427 3.954 48.602 -2.765 c 437 NIL_437    0.000
6281 C_1424 5.454 47.680 0.664 c3 437 NIL_437    0.000
6282 O 3.068 49.405 -2.550 o 437 NIL_437    0.000
6283 C_1428 5.283 46.801 1.933 c 437 NIL_437    0.000
6284 N 6.018 48.971 1.108 n 437 NIL_437    0.000
6285 O 5.170 45.585 1.856 o 437 NIL_437    0.000
6286 H_14231 3.888 49.020 -0.078 hc 437 NIL_437    0.000
6287 H_14232 3.329 47.370 0.209 hc 437 NIL_437    0.000
6288 H_14251 7.366 47.379 -0.425 h1 437 NIL_437    0.000
6289 H_14252 6.341 45.932 -0.343 h1 437 NIL_437    0.000
6290 H_1422 3.850 46.703 -1.908 h1 437 NIL_437    0.000
6291 C_188 5.827 32.217 18.545 c3 438 NIL_438    0.000
6292 C_112 4.932 33.015 17.586 c3 438 NIL_438    0.000
6293 H_1121 4.960 32.563 16.591 h1 438 NIL_438    0.000
6294 H_1122 3.898 33.003 17.945 h1 438 NIL_438    0.000
6295 H_1881 5.455 31.196 18.654 hc 438 NIL_438    0.000
6296 H_1882 5.815 32.686 19.530 hc 438 NIL_438    0.000
6297 H_1883 6.862 32.180 18.190 hc 438 NIL_438    0.000
6298 N 13.392 39.396 18.984 n 439 NIL_439    0.000
6299 C_133 14.256 39.319 17.819 c3 439 NIL_439    0.000
6300 C_136 14.112 40.104 20.060 c3 439 NIL_439    0.000
6301 C_134 15.697 39.546 18.318 c3 439 NIL_439    0.000
6302 C_138 14.064 38.038 17.048 c 439 NIL_439    0.000
6303 C.fc 15.561 40.414 19.586 c3 439 NIL_439    0.000
6304 O 14.939 37.573 16.346 o 439 NIL_439    0.000
6305 NH 15.739 41.851 19.311 n 439 NIL_439    0.000
6306 H.fc 16.287 40.108 20.343 h1 439 NIL_439    0.000
6307 H_1341 16.315 40.031 17.562 hc 439 NIL_439    0.000
6308 H_1342 16.145 38.586 18.582 hc 439 NIL_439    0.000
6309 H_1361 14.142 39.455 20.940 h1 439 NIL_439    0.000
6310 H_1362 13.586 41.029 20.306 h1 439 NIL_439    0.000
6311 H_133 13.978 40.136 17.148 h1 439 NIL_439    0.000
6312 HH 14.909 42.317 18.977 hn 439 NIL_439    0.000
6313 C_737 2.975 39.202 19.716 c3 440 NIL_440    0.000
6314 C.fb 2.626 37.789 19.169 c3 440 NIL_440    0.000
6315 N 2.836 40.193 18.630 n 440 NIL_440    0.000
6316 C_735 1.981 38.115 17.806 c3 440 NIL_440    0.000
6317 NH 3.819 36.931 19.043 n 440 NIL_440    0.000
6318 C_734 2.556 39.486 17.396 c3 440 NIL_440    0.000
6319 C_739 1.672 40.274 16.462 c 440 NIL_440    0.000
6320 O 0.998 39.734 15.608 o 440 NIL_440    0.000
6321 H_734 3.510 39.338 16.880 h1 440 NIL_440    0.000
6322 H_7351 2.180 37.345 17.057 hc 440 NIL_440    0.000
6323 H_7352 0.899 38.206 17.936 hc 440 NIL_440    0.000
6324 H.fb 1.904 37.292 19.821 h1 440 NIL_440    0.000
6325 H_7371 2.280 39.466 20.516 h1 440 NIL_440    0.000
6326 H_7372 3.998 39.217 20.100 h1 440 NIL_440    0.000
6327 HH 4.651 37.408 18.732 hn 440 NIL_440    0.000
6328 C_2526 2.500 38.100 -4.857 c3 441 NIL_441    0.000
6329 C_2527 2.177 39.542 -5.312 c3 441 NIL_441    0.000
6330 C_3504 1.234 39.513 -6.531 c3 441 NIL_441    0.000
6331 H_35041 1.052 40.532 -6.881 hc 441 NIL_441    0.000
6332 H_35042 0.283 39.068 -6.239 hc 441 NIL_441    0.000
6333 H_35043 1.656 38.931 -7.354 hc 441 NIL_441    0.000
6334 H_25271 3.024 40.064 -5.598 hc 441 NIL_441    0.000
6335 H_25272 1.786 40.117 -4.529 hc 441 NIL_441    0.000
6336 H_25261 1.581 37.648 -4.480 h1 441 NIL_441    0.000
6337 H_25262 2.872 37.501 -5.695 h1 441 NIL_441    0.000
6338 C_2858 13.985 42.879 8.929 c3 442 NIL_442    0.000
6339 C_2854 15.003 43.335 7.866 c 442 NIL_442    0.000
6340 NH 13.163 41.813 8.291 n 442 NIL_442    0.000
6341 C_2870 14.650 42.666 10.421 c3 442 NIL_442    0.000
6342 O 15.955 44.005 8.210 o 442 NIL_442    0.000
6343 C_2878 13.894 42.842 11.868 c3 442 NIL_442    0.000
6344 NH 14.671 43.332 13.022 n 442 NIL_442    0.000
6345 H_28781 13.080 43.558 11.720 h1 442 NIL_442    0.000
6346 H_28782 13.438 41.888 12.143 h1 442 NIL_442    0.000
6347 H_28701 15.460 43.397 10.455 hc 442 NIL_442    0.000
6348 H_28702 15.146 41.694 10.425 hc 442 NIL_442    0.000
6349 H_2858 13.317 43.739 9.021 h1 442 NIL_442    0.000
6350 HH 15.677 43.250 13.010 hn 442 NIL_442    0.000
6351 HH 12.554 41.320 8.926 hn 442 NIL_442    0.000
6352 C_1478 6.705 49.649 0.014 c3 443 NIL_443    0.000
6353 C_1479 5.712 50.230 -1.005 c3 443 NIL_443    0.000
6354 C_3530 4.826 51.290 -0.336 c3 443 NIL_443    0.000
6355 H_35301 4.261 50.846 0.487 hc 443 NIL_443    0.000
6356 H_35302 4.121 51.705 -1.059 hc 443 NIL_443    0.000
6357 H_35303 5.444 52.100 0.057 hc 443 NIL_443    0.000
6358 H_14791 5.087 49.433 -1.409 hc 443 NIL_443    0.000
6359 H_14792 6.258 50.679 -1.836 hc 443 NIL_443    0.000
6360 H_14781 7.351 48.926 -0.486 h1 443 NIL_443    0.000
6361 H_14782 7.322 50.451 0.425 h1 443 NIL_443    0.000
6362 C_3010 14.136 39.302 0.349 c3 444 NIL_444    0.000
6363 C_3011 15.277 39.352 -0.679 c3 444 NIL_444    0.000
6364 C_3516 16.634 39.231 0.028 c3 444 NIL_444    0.000
6365 H_35161 16.768 40.052 0.736 hc 444 NIL_444    0.000
6366 H_35162 17.445 39.267 -0.702 hc 444 NIL_444    0.000
6367 H_35163 16.694 38.287 0.574 hc 444 NIL_444    0.000
6368 H_30111 15.234 40.289 -1.237 hc 444 NIL_444    0.000
6369 H_30112 15.162 38.533 -1.392 hc 444 NIL_444    0.000
6370 H_30101 13.176 39.343 -0.166 h1 444 NIL_444    0.000
6371 H_30102 14.197 38.360 0.900 h1 444 NIL_444    0.000
6372 C_1477 3.068 48.970 -5.933 c3 445 NIL_445    0.000
6373 C_1476 4.172 49.529 -5.024 c3 445 NIL_445    0.000
6374 C_3532 3.513 47.677 -6.628 c3 445 NIL_445    0.000
6375 H_35321 4.357 47.858 -7.205 hc 445 NIL_445    0.000
6376 H_35322 2.727 47.316 -7.293 hc 445 NIL_445    0.000
6377 H_35323 3.491 47.035 -5.976 hc 445 NIL_445    0.000
6378 H_14761 5.044 49.780 -5.627 h1 445 NIL_445    0.000
6379 H_14762 3.803 50.440 -4.543 h1 445 NIL_445    0.000
6380 H_14771 2.806 49.720 -6.685 hc 445 NIL_445    0.000
6381 H_14772 2.181 48.763 -5.330 hc 445 NIL_445    0.000
6382 C_1472 9.130 46.970 -9.999 c3 446 NIL_446    0.000
6383 C_1471 8.567 48.389 -9.844 c3 446 NIL_446    0.000
6384 C_3542 10.175 46.918 -11.120 c3 446 NIL_446    0.000
6385 H_35421 10.526 45.893 -11.256 hc 446 NIL_446    0.000
6386 H_35422 11.030 47.552 -10.873 hc 446 NIL_446    0.000
6387 H_35423 9.742 47.267 -12.060 hc 446 NIL_446    0.000
6388 H_14711 9.344 49.061 -9.473 h1 446 NIL_446    0.000
6389 H_14712 8.214 48.750 -10.813 h1 446 NIL_446    0.000
6390 H_14721 8.535 46.184 -10.082 hc 446 NIL_446    0.000
6391 H_14722 9.569 46.641 -9.058 hc 446 NIL_446    0.000
6392 C_660 18.540 44.905 17.915 c3 447 NIL_447    0.000
6393 C_662 18.620 46.119 18.853 c3 447 NIL_447    0.000
6394 H_6621 18.035 46.949 18.452 hc 447 NIL_447    0.000
6395 H_6622 19.652 46.455 18.958 hc 447 NIL_447    0.000
6396 H_6623 18.235 45.860 19.840 hc 447 NIL_447    0.000
6397 H_6601 18.964 45.173 16.943 h1 447 NIL_447    0.000
6398 H_6602 19.116 44.073 18.332 h1 447 NIL_447    0.000
6399 C_3009 15.962 42.831 -5.971 c3 448 NIL_448    0.000
6400 C_3008 15.935 41.651 -4.990 c3 448 NIL_448    0.000
6401 C_3518 14.617 43.034 -6.623 c3 448 NIL_448    0.000
6402 H_35181 14.277 42.813 -6.444 hc 448 NIL_448    0.000
6403 H_35182 14.609 42.181 -7.237 hc 448 NIL_448    0.000
6404 H_35183 14.594 43.853 -7.315 hc 448 NIL_448    0.000
6405 H_30081 15.674 40.734 -5.519 h1 448 NIL_448    0.000
6406 H_30082 16.924 41.524 -4.541 h1 448 NIL_448    0.000
6407 H_30091 16.709 42.649 -6.747 hc 448 NIL_448    0.000
6408 H_30092 16.242 43.744 -5.442 hc 448 NIL_448    0.000
6409 C_2299 3.618 47.786 15.307 c3 449 NIL_449    0.000
6410 C_309 4.522 47.357 14.169 c 449 NIL_449    0.000
6411 O 5.294 46.439 14.253 o 449 NIL_449    0.000
6412 H_22991 3.985 48.680 15.584 h1 449 NIL_449    0.000
6413 H_22992 2.628 47.905 14.883 h1 449 NIL_449    0.000
6414 C_769 3.521 49.915 16.534 c3 450 NIL_450    0.000
6415 C_770 3.014 50.022 15.079 c3 450 NIL_450    0.000
6416 H_7701 2.549 49.137 14.759 hc 450 NIL_450    0.000
6417 H_7702 3.844 50.240 14.403 hc 450 NIL_450    0.000
6418 H_7703 2.275 50.816 15.002 hc 450 NIL_450    0.000
6419 H_7691 4.263 49.114 16.696 h1 450 NIL_450    0.000
6420 H_7692 4.035 50.825 16.814 h1 450 NIL_450    0.000
6421 C_3691 19.134 45.361 -19.171 c2 451 NIL_451    0.000
6422 C_3689 19.821 46.525 -19.078 c2 451 NIL_451    0.000
6423 C_3693 19.321 44.295 -18.372 c2 451 NIL_451    0.000
6424 C_3585 20.774 46.757 -18.166 c2 451 NIL_451    0.000
6425 C_3695 20.273 44.537 -17.458 c2 451 NIL_451    0.000
6426 C_3705 18.497 42.905 -18.511 c3 451 NIL_451    0.000
6427 C_1296 21.605 47.988 -18.090 c 451 NIL_451    0.000
6428 C_3697 20.960 45.699 -17.360 c2 451 NIL_451    0.000
6429 NH 19.040 41.681 -17.681 n 451 NIL_451    0.000
6430 O 21.535 48.863 -18.930 o 451 NIL_451    0.000
6431 C_2350 20.084 40.747 -17.888 c 451 NIL_451    0.000
6432 C_2345 20.365 39.513 -16.891 c3 451 NIL_451    0.000
6433 O 20.806 40.880 -18.855 o 451 NIL_451    0.000
6434 N 21.450 38.432 -17.016 n 451 NIL_451    0.000
6435 C_2346 20.562 40.078 -15.396 c3 451 NIL_451    0.000
6436 C_2348 22.008 38.262 -15.617 c3 451 NIL_451    0.000
6437 C_2347 21.125 38.942 -14.493 c3 451 NIL_451    0.000
6438 N 19.999 38.095 -14.050 n 451 NIL_451    0.000
6439 C_2359 21.921 39.448 -13.228 c 451 NIL_451    0.000
6440 C_3508 19.109 37.798 -15.168 c3 451 NIL_451    0.000
6441 O 22.828 40.243 -13.366 o 451 NIL_451    0.000
6442 C_3510 18.387 39.057 -15.675 c3 451 NIL_451    0.000
6443 C_3512 17.562 39.704 -14.576 c3 451 NIL_451    0.000
6444 H_35121 16.826 38.995 -14.193 hc 451 NIL_451    0.000
6445 H_35122 17.037 40.581 -14.962 hc 451 NIL_451    0.000
6446 H_35123 18.208 40.019 -13.754 hc 451 NIL_451    0.000
6447 H_35101 17.755 38.793 -16.528 hc 451 NIL_451    0.000
6448 H_35102 19.082 39.796 -16.017 hc 451 NIL_451    0.000
6449 H_35081 18.366 37.066 -14.844 h1 451 NIL_451    0.000
6450 H_35082 19.702 37.361 -15.975 h1 451 NIL_451    0.000
6451 H_23481 22.967 38.731 -15.570 h1 451 NIL_451    0.000
6452 H_23482 22.122 37.197 -15.400 h1 451 NIL_451    0.000
6453 H_23461 21.269 40.891 -15.446 hc 451 NIL_451    0.000
6454 H_23462 19.620 40.480 -14.982 hc 451 NIL_451    0.000
6455 H_2345 19.403 38.951 -16.908 h1 451 NIL_451    0.000
6456 H_3697 21.710 45.765 -16.609 ha 451 NIL_451    0.000
6457 H_37051 17.464 43.082 -18.202 h1 451 NIL_451    0.000
6458 H_37052 18.481 42.610 -19.564 h1 451 NIL_451    0.000
6459 H_3695 20.516 43.743 -16.756 ha 451 NIL_451    0.000
6460 H_3689 19.595 47.312 -19.795 ha 451 NIL_451    0.000
6461 H_3691 18.384 45.276 -19.952 ha 451 NIL_451    0.000
6462 HH 18.495 41.512 -16.848 hn 451 NIL_451    0.000
6463 C_3522 32.227 40.681 -15.152 c3 452 NIL_452    0.000
6464 N 31.385 41.228 -14.095 n 452 NIL_452    0.000
6465 C_3524 33.615 40.337 -14.604 c3 452 NIL_452    0.000
6466 C_2829 30.018 41.522 -14.579 c3 452 NIL_452    0.000
6467 C_3526 34.292 41.616 -14.091 c3 452 NIL_452    0.000
6468 C_2828 29.513 40.370 -15.505 c3 452 NIL_452    0.000
6469 C_2830 29.997 42.659 -15.683 c3 452 NIL_452    0.000
6470 C_2841 29.083 41.717 -13.328 c 452 NIL_452    0.000
6471 C_2827 29.980 40.601 -16.991 c3 452 NIL_452    0.000
6472 N 30.253 42.135 -17.087 n 452 NIL_452    0.000
6473 O 27.880 41.783 -13.477 o 452 NIL_452    0.000
6474 C_2832 28.989 39.786 -17.970 c 452 NIL_452    0.000
6475 O 28.518 40.341 -18.942 o 452 NIL_452    0.000
6476 NH 28.658 38.431 -17.731 n 452 NIL_452    0.000
6477 C_3643 27.834 37.365 -18.544 c3 452 NIL_452    0.000
6478 C_3631 26.216 37.392 -18.382 c2 452 NIL_452    0.000
6479 C_3629 25.368 36.828 -19.259 c2 452 NIL_452    0.000
6480 C_3633 25.549 37.975 -17.373 c2 452 NIL_452    0.000
6481 C_3627 24.016 36.850 -19.151 c2 452 NIL_452    0.000
6482 C_3635 24.197 38.001 -17.263 c2 452 NIL_452    0.000
6483 C_2378 23.356 37.443 -18.147 c2 452 NIL_452    0.000
6484 C_2349 21.871 37.557 -18.067 c 452 NIL_452    0.000
6485 O 21.159 37.144 -18.958 o 452 NIL_452    0.000
6486 H_3635 23.801 38.514 -16.446 ha 452 NIL_452    0.000
6487 H_3627 23.434 36.377 -19.937 ha 452 NIL_452    0.000
6488 H_3633 26.130 38.471 -16.600 ha 452 NIL_452    0.000
6489 H_3629 25.797 36.327 -20.123 ha 452 NIL_452    0.000
6490 H_36431 28.198 36.376 -18.256 h1 452 NIL_452    0.000
6491 H_36432 28.073 37.506 -19.601 h1 452 NIL_452    0.000
6492 H_2827 30.952 40.115 -17.104 h1 452 NIL_452    0.000
6493 H_28301 29.014 43.125 -15.667 h1 452 NIL_452    0.000
6494 H_28302 30.743 43.420 -15.436 h1 452 NIL_452    0.000
6495 H_28281 28.422 40.384 -15.494 hc 452 NIL_452    0.000
6496 H_28282 29.839 39.397 -15.135 hc 452 NIL_452    0.000
6497 H_35261 35.261 41.383 -13.648 hc 452 NIL_452    0.000
6498 H_35262 33.681 42.118 -13.346 hc 452 NIL_452    0.000
6499 H_35263 34.439 42.316 -14.912 hc 452 NIL_452    0.000
6500 H_35241 34.225 39.886 -15.388 hc 452 NIL_452    0.000
6501 H_35242 33.514 39.615 -13.791 hc 452 NIL_452    0.000
6502 H_35221 32.322 41.427 -15.946 h1 452 NIL_452    0.000
6503 H_35222 31.753 39.784 -15.558 h1 452 NIL_452    0.000
6504 HH 29.064 38.045 -16.891 hn 452 NIL_452    0.000
6505 N 19.997 38.093 -3.788 n 453 NIL_453    0.000
6506 C_2464 21.290 38.632 -4.267 c3 453 NIL_453    0.000
6507 C_2463 21.004 39.955 -5.013 c3 453 NIL_453    0.000
6508 C_2465 21.881 37.857 -5.542 c3 453 NIL_453    0.000
6509 C_2476 22.261 38.834 -3.038 c 453 NIL_453    0.000
6510 C_2462 20.612 39.480 -6.538 c3 453 NIL_453    0.000
6511 N 21.433 38.472 -6.860 n 453 NIL_453    0.000
6512 O 23.365 39.309 -3.217 o 453 NIL_453    0.000
6513 C_2467 20.389 40.597 -7.529 c 453 NIL_453    0.000
6514 O 20.030 41.718 -7.235 o 453 NIL_453    0.000
6515 H_2462 19.567 39.032 -6.433 h1 453 NIL_453    0.000
6516 H_24651 22.972 37.897 -5.501 h1 453 NIL_453    0.000
6517 H_24652 21.567 36.809 -5.515 h1 453 NIL_453    0.000
6518 H_24631 21.876 40.567 -5.083 hc 453 NIL_453    0.000
6519 H_24632 20.199 40.538 -4.517 hc 453 NIL_453    0.000
6520 C_268 23.864 50.445 18.154 c3 454 NIL_454    0.000
6521 C_267 24.701 49.249 17.661 c3 454 NIL_454    0.000
6522 C.fa 23.101 49.937 19.396 c3 454 NIL_454    0.000
6523 N 24.989 48.446 18.833 n 454 NIL_454    0.000
6524 C_272 25.942 49.638 16.899 c 454 NIL_454    0.000
6525 C_270 23.950 48.713 19.845 c3 454 NIL_454    0.000
6526 NH 21.711 49.551 19.098 n 454 NIL_454    0.000
6527 O 25.971 50.610 16.172 o 454 NIL_454    0.000
6528 H_2701 24.432 48.923 20.802 h1 454 NIL_454    0.000
6529 H_2702 23.313 47.831 19.948 h1 454 NIL_454    0.000
6530 H.fa 23.095 50.704 20.175 h1 454 NIL_454    0.000
6531 H_267 24.096 48.635 16.987 h1 454 NIL_454    0.000
6532 H_2681 23.187 50.819 17.383 hc 454 NIL_454    0.000
6533 H_2682 24.539 51.248 18.456 hc 454 NIL_454    0.000
6534 HH 21.617 48.636 18.694 hn 454 NIL_454    0.000
6535 C_2530 19.490 38.361 6.275 c3 455 NIL_455    0.000
6536 C_2531 19.322 39.855 5.962 c3 455 NIL_455    0.000
6537 C_3500 18.006 40.101 5.216 c3 455 NIL_455    0.000
6538 H_35001 17.996 39.551 4.273 hc 455 NIL_455    0.000
6539 H_35002 17.885 41.165 5.001 hc 455 NIL_455    0.000
6540 H_35003 17.160 39.768 5.822 hc 455 NIL_455    0.000
6541 H_25311 20.028 40.183 5.301 hc 455 NIL_455    0.000
6542 H_25312 19.333 40.427 6.892 hc 455 NIL_455    0.000
6543 H_25301 18.679 38.037 6.932 h1 455 NIL_455    0.000
6544 H_25302 19.445 37.786 5.347 h1 455 NIL_455    0.000
6545 C_728 18.212 48.409 17.034 c3 456 NIL_456    0.000
6546 C_727 19.114 47.248 17.499 c3 456 NIL_456    0.000
6547 N 18.897 49.655 17.436 n3 456 NIL_456    0.000
6548 C_726 19.888 47.908 18.667 c3 456 NIL_456    0.000
6549 N 20.005 46.810 16.402 n 456 NIL_456    0.000
6550 C_738 18.279 46.091 18.030 c 456 NIL_456    0.000
6551 C_725 19.406 49.377 18.786 c3 456 NIL_456    0.000
6552 O 17.194 46.260 18.547 o 456 NIL_456    0.000
6553 C_729 20.553 50.250 19.279 c 456 NIL_456    0.000
6554 O 20.472 51.371 19.737 o 456 NIL_456    0.000
6555 H_725 18.585 49.436 19.506 h1 456 NIL_456    0.000
6556 H_7261 20.952 47.882 18.441 hc 456 NIL_456    0.000
6557 H_7262 19.723 47.372 19.604 hc 456 NIL_456    0.000
6558 H_7281 18.037 48.381 15.956 h1 456 NIL_456    0.000
6559 H_7282 17.257 48.350 17.561 h1 456 NIL_456    0.000
6560 C_2960 29.692 42.551 1.953 c 457 NIL_457    0.000
6561 C_2956 30.196 41.679 0.739 c3 457 NIL_457    0.000
6562 O 28.883 43.438 1.768 o 457 NIL_457    0.000
6563 C_2955 31.329 42.335 -0.114 c3 457 NIL_457    0.000
6564 C_2957 29.131 41.431 -0.431 c3 457 NIL_457    0.000
6565 N 30.703 40.406 1.305 n 457 NIL_457    0.000
6566 C_2954 30.852 42.521 -1.599 c3 457 NIL_457    0.000
6567 N 29.688 41.703 -1.814 n 457 NIL_457    0.000
6568 C_2959 31.881 42.304 -2.695 c 457 NIL_457    0.000
6569 O 33.062 42.489 -2.484 o 457 NIL_457    0.000
6570 H_2954 30.515 43.554 -1.712 h1 457 NIL_457    0.000
6571 H_29571 28.771 40.401 -0.388 h1 457 NIL_457    0.000
6572 H_29572 28.277 42.096 -0.274 h1 457 NIL_457    0.000
6573 H_29551 32.198 41.673 -0.103 hc 457 NIL_457    0.000
6574 H_29552 31.629 43.292 0.312 hc 457 NIL_457    0.000
6575 N 26.057 36.717 18.082 n 458 NIL_458    0.000
6576 C_3832 25.807 37.974 17.403 c3 458 NIL_458    0.000
6577 C_3835 27.447 36.695 18.570 c3 458 NIL_458    0.000
6578 C_3833 27.192 38.542 17.022 c3 458 NIL_458    0.000
6579 C_3837 24.862 37.801 16.234 c 458 NIL_458    0.000
6580 C_3834 28.226 37.894 17.969 c3 458 NIL_458    0.000
6581 O 24.911 38.510 15.250 o 458 NIL_458    0.000
6582 N 29.381 37.402 17.204 n 458 NIL_458    0.000
6583 C_3841 28.652 38.854 19.074 c 458 NIL_458    0.000
6584 H 29.247 36.535 16.705 hn 458 NIL_458    0.000
6585 O 27.948 39.071 20.039 o 458 NIL_458    0.000
6586 H_38331 27.428 38.245 15.999 hc 458 NIL_458    0.000
6587 H_38332 27.215 39.632 17.086 hc 458 NIL_458    0.000
6588 H_38351 27.921 35.760 18.261 h1 458 NIL_458    0.000
6589 H_38352 27.453 36.765 19.661 h1 458 NIL_458    0.000
6590 H_3832 25.322 38.645 18.116 h1 458 NIL_458    0.000
6591 C_3502 23.476 42.223 1.314 c3 459 NIL_459    0.000
6592 C_2529 22.957 41.472 0.080 c3 459 NIL_459    0.000
6593 C_2528 21.524 40.978 0.324 c3 459 NIL_459    0.000
6594 H_25281 20.892 41.825 0.600 h1 459 NIL_459    0.000
6595 H_25282 21.137 40.535 -0.597 h1 459 NIL_459    0.000
6596 H_25291 22.973 42.141 -0.782 hc 459 NIL_459    0.000
6597 H_25292 23.626 40.658 -0.134 hc 459 NIL_459    0.000
6598 H_35021 23.491 41.562 2.182 hc 459 NIL_459    0.000
6599 H_35022 22.830 43.074 1.538 hc 459 NIL_459    0.000
6600 H_35023 24.488 42.592 1.139 hc 459 NIL_459    0.000
6601 C_3887 18.082 43.584 18.124 c3 460 NIL_460    0.000
6602 C_3886 18.926 42.395 17.593 c3 460 NIL_460    0.000
6603 N 18.781 44.849 17.846 n 460 NIL_460    0.000
6604 C_3885 20.103 43.099 16.873 c3 460 NIL_460    0.000
6605 N 18.132 41.614 16.632 n 460 NIL_460    0.000
6606 C_3892 19.408 41.541 18.764 c 460 NIL_460    0.000
6607 C_3884 20.116 44.567 17.356 c3 460 NIL_460    0.000
6608 H 17.526 42.146 16.025 hn 460 NIL_460    0.000
6609 O 19.771 42.039 19.810 o 460 NIL_460    0.000
6610 C_3888 20.552 45.573 16.311 c 460 NIL_460    0.000
6611 O 21.286 45.256 15.418 o 460 NIL_460    0.000
6612 H_3884 20.801 44.663 18.202 h1 460 NIL_460    0.000
6613 H_38851 19.921 43.081 15.795 hc 460 NIL_460    0.000
6614 H_38852 21.055 42.603 17.070 hc 460 NIL_460    0.000
6615 H_38871 17.111 43.599 17.623 h1 460 NIL_460    0.000
6616 H_38872 17.930 43.486 19.201 h1 460 NIL_460    0.000
6617 C_2292 31.363 44.257 15.312 c3 461 NIL_461    0.000
6618 C_243 30.529 43.818 14.116 c 461 NIL_461    0.000
6619 O 29.355 43.868 14.068 o 461 NIL_461    0.000
6620 H_22921 31.915 43.385 15.673 h1 461 NIL_461    0.000
6621 H_22922 32.070 45.014 14.964 h1 461 NIL_461    0.000
6622 C_2474 21.569 38.608 0.838 c3 462 NIL_462    0.000
6623 C_2473 20.271 38.193 0.059 c3 462 NIL_462    0.000
6624 C_2475 22.576 38.642 -0.408 c3 462 NIL_462    0.000
6625 C_2478 21.894 37.633 2.040 c 462 NIL_462    0.000
6626 N 21.456 39.977 1.386 n 462 NIL_462    0.000
6627 C_2472 20.670 37.785 -1.405 c3 462 NIL_462    0.000
6628 N 21.864 38.511 -1.741 n 462 NIL_462    0.000
6629 O 22.315 36.516 1.816 o 462 NIL_462    0.000
6630 C_2477 19.614 37.846 -2.499 c 462 NIL_462    0.000
6631 O 18.444 37.655 -2.240 o 462 NIL_462    0.000
6632 H_2472 20.972 36.735 -1.369 h1 462 NIL_462    0.000
6633 H_24751 23.126 39.543 -0.400 h1 462 NIL_462    0.000
6634 H_24752 23.275 37.806 -0.324 h1 462 NIL_462    0.000
6635 H_24731 19.595 39.050 0.018 hc 462 NIL_462    0.000
6636 H_24732 19.752 37.374 0.564 hc 462 NIL_462    0.000
6637 C_2521 20.449 41.283 -9.880 c3 463 NIL_463    0.000
6638 C_2522 21.576 41.421 -10.878 c3 463 NIL_463    0.000
6639 C_3506 22.901 41.827 -10.114 c3 463 NIL_463    0.000
6640 H_35061 23.160 41.080 -9.347 hc 463 NIL_463    0.000
6641 H_35062 22.733 42.775 -9.643 hc 463 NIL_463    0.000
6642 H_35063 23.732 41.899 -10.814 hc 463 NIL_463    0.000
6643 H_25221 21.399 42.073 -11.654 hc 463 NIL_463    0.000
6644 H_25222 21.694 40.475 -11.441 hc 463 NIL_463    0.000
6645 H_25211 20.308 42.261 -9.415 h1 463 NIL_463    0.000
6646 H_25212 19.540 41.019 -10.426 h1 463 NIL_463    0.000
6647 C_111 23.318 34.490 17.069 c3 464 NIL_464    0.000
6648 C_110 23.835 35.882 17.484 c3 464 NIL_464    0.000
6649 N 21.907 34.403 17.497 n3 464 NIL_464    0.000
6650 C_109 22.724 36.364 18.458 c3 464 NIL_464    0.000
6651 N 24.004 36.755 16.297 n 464 NIL_464    0.000
6652 C_137 25.142 35.735 18.249 c 464 NIL_464    0.000
6653 C_108 21.818 35.142 18.763 c3 464 NIL_464    0.000
6654 O 25.375 34.762 18.934 o 464 NIL_464    0.000
6655 C_113 20.421 35.579 19.198 c 464 NIL_464    0.000
6656 O 19.520 34.853 19.566 o 464 NIL_464    0.000
6657 H_108 22.260 34.555 19.572 h1 464 NIL_464    0.000
6658 H_1091 22.134 37.140 17.961 hc 464 NIL_464    0.000
6659 H_1092 23.145 36.785 19.375 hc 464 NIL_464    0.000
6660 H_1111 23.412 34.342 15.990 h1 464 NIL_464    0.000
6661 H_1112 23.893 33.726 17.598 h1 464 NIL_464    0.000
6662 C_2855 29.470 41.561 6.943 c 465 NIL_465    0.000
6663 C_2849 30.385 42.142 5.845 c3 465 NIL_465    0.000
6664 O 28.571 40.811 6.620 o 465 NIL_465    0.000
6665 C_2848 30.545 40.579 5.823 c3 465 NIL_465    0.000
6666 C_2850 29.641 42.812 4.593 c3 465 NIL_465    0.000
6667 N 31.381 43.009 6.529 n 465 NIL_465    0.000
6668 C_2847 30.612 41.510 3.289 c3 465 NIL_465    0.000
6669 N 30.101 42.261 3.243 n 465 NIL_465    0.000
6670 C_2852 31.060 40.079 2.443 c 465 NIL_465    0.000
6671 O 31.660 39.121 2.866 o 465 NIL_465    0.000
6672 H_2847 32.095 42.278 2.942 h1 465 NIL_465    0.000
6673 H_28501 28.571 42.624 4.674 h1 465 NIL_465    0.000
6674 H_28502 29.807 43.894 4.611 h1 465 NIL_465    0.000
6675 H_28481 30.424 40.084 5.145 hc 465 NIL_465    0.000
6676 H_28482 32.006 40.586 5.731 hc 465 NIL_465    0.000
6677 C_3520 30.511 37.232 -8.932 c3 466 NIL_466    0.000
6678 C_3007 29.159 37.732 -9.469 c3 466 NIL_466    0.000
6679 C_3006 29.294 39.160 -10.017 c3 466 NIL_466    0.000
6680 H_30061 29.997 39.171 -10.853 h1 466 NIL_466    0.000
6681 H_30062 28.319 39.505 -10.372 h1 466 NIL_466    0.000
6682 H_30071 28.810 37.062 -10.256 hc 466 NIL_466    0.000
6683 H_30072 28.421 37.719 -8.665 hc 466 NIL_466    0.000
6684 H_35201 30.975 37.878 -8.233 hc 466 NIL_466    0.000
6685 H_35202 31.242 37.161 -9.732 hc 466 NIL_466    0.000
6686 H_35203 30.391 36.248 -8.475 hc 466 NIL_466    0.000
6687 C_262 33.357 42.623 19.435 c 467 NIL_467    0.000
6688 C_257 33.013 44.033 18.979 c3 467 NIL_467    0.000
6689 O 34.438 42.228 19.823 o 467 NIL_467    0.000
6690 N 33.638 44.497 17.737 n3 467 NIL_467    0.000
6691 C_258 31.509 44.106 18.625 c3 467 NIL_467    0.000
6692 C_260 32.787 45.596 17.231 c3 467 NIL_467    0.000
6693 C_259 31.328 45.247 17.599 c3 467 NIL_467    0.000
6694 N 30.550 44.813 16.414 n 467 NIL_467    0.000
6695 C_271 30.677 46.427 18.303 c 467 NIL_467    0.000
6696 O 31.319 47.217 18.965 o 467 NIL_467    0.000
6697 H_2601 32.905 45.723 16.153 h1 467 NIL_467    0.000
6698 H_2602 33.065 46.522 17.740 h1 467 NIL_467    0.000
6699 H_2581 31.204 43.165 18.163 hc 467 NIL_467    0.000
6700 H_2582 30.896 44.267 19.515 hc 467 NIL_467    0.000
6701 H_257 33.235 44.730 19.790 h1 467 NIL_467    0.000
6702 N 31.465 41.871 -3.923 n 468 NIL_468    0.000
6703 C_2946 30.084 41.567 -4.364 c3 468 NIL_468    0.000
6704 C_2945 30.062 40.246 -5.194 c3 468 NIL_468    0.000
6705 C_2947 29.556 42.497 -5.525 c3 468 NIL_468    0.000
6706 C_2958 29.178 41.424 -3.078 c 468 NIL_468    0.000
6707 C_2944 30.472 40.595 -6.660 c3 468 NIL_468    0.000
6708 N 29.600 41.808 -6.871 n 468 NIL_468    0.000
6709 O 28.050 40.984 -3.175 o 468 NIL_468    0.000
6710 C_2949 30.069 39.609 -7.739 c 468 NIL_468    0.000
6711 O 29.890 38.472 -7.429 o 468 NIL_468    0.000
6712 H_2944 31.561 40.677 -6.715 h1 468 NIL_468    0.000
6713 H_29471 28.531 42.630 -5.518 h1 468 NIL_468    0.000
6714 H_29472 29.696 43.930 -4.905 h1 468 NIL_468    0.000
6715 H_29451 29.039 39.863 -5.206 hc 468 NIL_468    0.000
6716 H_29452 30.712 39.484 -4.758 hc 468 NIL_468    0.000
6717 C_1480 19.417 48.087 5.729 c3 469 NIL_469    0.000
6718 C_1481 19.776 47.951 4.243 c3 469 NIL_469    0.000
6719 C_3528 20.423 46.588 3.972 c3 469 NIL_469    0.000
6720 H_35281 19.735 45.806 4.208 hc 469 NIL_469    0.000
6721 H_35282 21.212 46.779 4.088 hc 469 NIL_469    0.000
6722 H_35283 20.630 46.468 2.934 hc 469 NIL_469    0.000
6723 H_14811 20.377 48.622 4.243 hc 469 NIL_469    0.000
6724 H_14812 18.877 48.053 3.633 hc 469 NIL_469    0.000
6725 H_14801 18.988 49.075 5.912 h1 469 NIL_469    0.000
6726 H_14802 18.674 47.328 5.989 h1 469 NIL_469    0.000
6727 C_2948 29.758 42.410 -8.233 c 470 NIL_470    0.000
6728 C_2937 29.919 41.463 -9.481 c3 470 NIL_470    0.000
6729 O 29.438 43.569 -8.378 o 470 NIL_470    0.000
6730 C_2936 31.273 41.599 -10.259 c3 470 NIL_470    0.000
6731 C_2938 28.921 41.750 -10.696 c3 470 NIL_470    0.000
6732 N 29.776 40.077 -8.986 n 470 NIL_470    0.000
6733 C_2935 30.997 41.991 -11.758 c3 470 NIL_470    0.000
6734 N 29.609 41.743 -12.043 n 470 NIL_470    0.000
6735 C_2939 31.886 41.388 -12.833 c 470 NIL_470    0.000
6736 O 33.005 41.018 -12.560 o 470 NIL_470    0.000
6737 H_2935 31.131 43.073 -11.849 h1 470 NIL_470    0.000
6738 H_29381 28.120 41.007 -10.702 h1 470 NIL_470    0.000
6739 H_29382 28.475 42.738 -10.561 h1 470 NIL_470    0.000
6740 H_29361 31.792 40.638 -10.231 hc 470 NIL_470    0.000
6741 H_29362 31.917 42.342 -9.785 hc 470 NIL_470    0.000
6742 C_1297 25.308 47.926 -17.895 c 471 NIL_471    0.000
6743 C_1292 24.081 48.414 -16.958 c3 471 NIL_471    0.000
6744 O 25.097 47.108 -18.768 o 471 NIL_471    0.000
6745 NH 26.626 48.419 -17.734 n 471 NIL_471    0.000
6746 N 22.621 47.875 -17.090 n 471 NIL_471    0.000
6747 C_1293 24.448 48.170 -15.438 c3 471 NIL_471    0.000
6748 C_3668 27.972 48.219 -18.534 c3 471 NIL_471    0.000
6749 C_1295 22.293 47.300 -15.728 c3 471 NIL_471    0.000
6750 C_1294 23.162 47.934 -14.573 c3 471 NIL_471    0.000
6751 C_3656 28.764 46.808 -18.381 c2 471 NIL_471    0.000
6752 N 22.598 49.218 -14.098 n 471 NIL_471    0.000
6753 C_1306 23.442 47.026 -13.318 c 471 NIL_471    0.000
6754 C_3654 29.799 46.444 -19.159 c2 471 NIL_471    0.000
6755 C_3658 28.483 45.854 -17.478 c2 471 NIL_471    0.000
6756 C_3544 22.690 50.250 -15.127 c3 471 NIL_471    0.000
6757 O 24.129 46.031 -13.430 o 471 NIL_471    0.000
6758 C_3652 30.463 45.267 -19.064 c2 471 NIL_471    0.000
6759 C_3660 29.147 44.677 -17.376 c2 471 NIL_471    0.000
6760 C_3546 24.138 50.699 -15.361 c3 471 NIL_471    0.000
6761 C_3574 30.172 44.314 -18.164 c2 471 NIL_471    0.000
6762 C_3548 24.191 51.717 -16.507 c3 471 NIL_471    0.000
6763 C_2831 30.831 42.982 -18.090 c 471 NIL_471    0.000
6764 O 31.622 42.619 -18.937 o 471 NIL_471    0.000
6765 H_35481 23.610 52.605 -16.251 hc 471 NIL_471    0.000
6766 H_35482 23.778 51.280 -17.419 hc 471 NIL_471    0.000
6767 H_35483 25.222 52.016 -16.700 hc 471 NIL_471    0.000
6768 H_35461 24.722 49.938 -15.684 hc 471 NIL_471    0.000
6769 H_35462 24.539 51.143 -14.447 hc 471 NIL_471    0.000
6770 H_3660 28.814 43.978 -16.630 ha 471 NIL_471    0.000
6771 H_3652 31.271 45.077 -19.766 ha 471 NIL_471    0.000
6772 H_35441 22.090 51.110 -14.818 h1 471 NIL_471    0.000
6773 H_35442 22.278 49.851 -16.058 h1 471 NIL_471    0.000
6774 H_3658 27.661 46.034 -16.791 ha 471 NIL_471    0.000
6775 H_3654 30.119 47.142 -19.928 ha 471 NIL_471    0.000
6776 H_12951 22.508 46.234 -15.752 h1 471 NIL_471    0.000
6777 H_12952 21.230 47.448 -15.518 h1 471 NIL_471    0.000
6778 H_36681 28.651 49.020 -18.234 h1 471 NIL_471    0.000
6779 H_36682 27.744 48.365 -19.594 h1 471 NIL_471    0.000
6780 H_12931 25.072 47.280 -15.376 hc 471 NIL_471    0.000
6781 H_12932 25.067 48.907 -14.971 hc 471 NIL_471    0.000
6782 H_1292 24.025 49.496 -17.110 h1 471 NIL_471    0.000
6783 HH 26.729 49.084 -16.982 hn 471 NIL_471    0.000
6784 C_1343 21.804 47.738 11.869 c3 472 NIL_472    0.000
6785 NH 20.949 48.070 13.019 n 472 NIL_472    0.000
6786 C_1335 21.381 48.349 10.406 c3 472 NIL_472    0.000
6787 C_1323 21.556 47.604 8.950 c3 472 NIL_472    0.000
6788 C_1319 20.403 47.888 7.969 c 472 NIL_472    0.000
6789 NH 22.819 47.743 8.171 n 472 NIL_472    0.000
6790 O 19.289 48.087 8.408 o 472 NIL_472    0.000
6791 H_1323 21.459 46.534 9.150 h1 472 NIL_472    0.000
6792 H_13351 20.306 48.523 10.490 hc 472 NIL_472    0.000
6793 H_13352 21.819 49.347 10.325 hc 472 NIL_472    0.000
6794 H_13431 21.799 46.649 11.785 h1 472 NIL_472    0.000
6795 H_13432 22.828 48.045 12.099 h1 472 NIL_472    0.000
6796 HH 23.660 47.729 8.729 hn 472 NIL_472    0.000
6797 HH 20.310 48.847 12.943 hn 472 NIL_472    0.000
6798 N 21.590 38.994 -11.955 n 473 NIL_473    0.000
6799 C_2355 20.657 37.973 -11.644 c3 473 NIL_473    0.000
6800 C_2358 22.219 39.287 -10.544 c3 473 NIL_473    0.000
6801 C_2356 20.102 38.260 -10.202 c3 473 NIL_473    0.000
6802 C_2360 19.674 37.715 -12.778 c 473 NIL_473    0.000
6803 C_2357 21.198 39.022 -9.381 c3 473 NIL_473    0.000
6804 O 18.618 37.155 -12.568 o 473 NIL_473    0.000
6805 N 20.669 40.290 -8.829 n 473 NIL_473    0.000
6806 C_2369 21.761 38.164 -8.179 c 473 NIL_473    0.000
6807 O 22.506 37.232 -8.399 o 473 NIL_473    0.000
6808 H_23561 19.215 38.895 -10.273 hc 473 NIL_473    0.000
6809 H_23562 19.819 37.331 -9.702 hc 473 NIL_473    0.000
6810 H_23581 22.585 40.338 -10.472 h1 473 NIL_473    0.000
6811 H_23582 23.103 38.763 -10.475 h1 473 NIL_473    0.000
6812 H_2355 21.254 37.059 -11.583 h1 473 NIL_473    0.000
6813 O 28.576 44.573 15.385 o 474 NIL_474    0.000
6814 C_3865 29.204 44.938 16.307 c 474 NIL_474    0.000
6815 C_3861 28.490 45.635 17.447 c3 474 NIL_474    0.000
6816 N 29.349 46.588 18.120 n 474 NIL_474    0.000
6817 C_3862 27.208 46.403 17.053 c3 474 NIL_474    0.000
6818 C_3864 28.534 47.696 18.632 c3 474 NIL_474    0.000
6819 C_3863 27.154 47.682 17.927 c3 474 NIL_474    0.000
6820 N 27.044 48.880 17.083 n 474 NIL_474    0.000
6821 C_3869 26.040 47.601 18.969 c 474 NIL_474    0.000
6822 H 27.882 49.144 16.588 hn 474 NIL_474    0.000
6823 O 26.116 46.855 19.923 o 474 NIL_474    0.000
6824 H_38641 29.042 48.644 18.438 h1 474 NIL_474    0.000
6825 H_38642 28.400 47.571 19.710 h1 474 NIL_474    0.000
6826 H_38621 27.270 46.689 16.001 hc 474 NIL_474    0.000
6827 H_38622 26.318 45.785 17.194 hc 474 NIL_474    0.000
6828 H_3861 28.235 44.861 18.176 h1 474 NIL_474    0.000
6829 C_2376 22.091 37.696 9.084 c3 475 NIL_475    0.000
6830 C_2372 20.785 37.968 8.315 c 475 NIL_475    0.000
6831 NH 23.197 38.048 8.150 n 475 NIL_475    0.000
6832 C_2388 22.296 38.328 10.586 c3 475 NIL_475    0.000
6833 O 19.741 38.067 8.927 o 475 NIL_475    0.000
6834 C_2396 21.686 37.815 12.023 c3 475 NIL_475    0.000
6835 NH 22.495 36.934 12.882 n 475 NIL_475    0.000
6836 H_23961 21.484 38.707 12.620 h1 475 NIL_475    0.000
6837 H_23962 20.725 37.327 11.843 h1 475 NIL_475    0.000
6838 H_23881 21.991 39.373 10.497 hc 475 NIL_475    0.000
6839 H_23882 23.376 38.372 10.741 hc 475 NIL_475    0.000
6840 H_2376 22.129 36.608 9.188 h1 475 NIL_475    0.000
6841 HH 22.485 35.945 12.679 hn 475 NIL_475    0.000
6842 HH 24.104 38.090 8.591 hn 475 NIL_475    0.000
6843 N 21.864 47.560 2.893 n 476 NIL_476    0.000
6844 C_1312 21.684 48.806 3.408 c3 476 NIL_476    0.000
6845 C_1315 22.434 46.980 4.983 c3 476 NIL_476    0.000
6846 C_1313 22.073 49.100 4.913 c3 476 NIL_476    0.000
6847 C_1317 22.366 49.564 2.330 c 476 NIL_476    0.000
6848 C_1314 21.889 47.877 5.802 c3 476 NIL_476    0.000
6849 O 22.823 50.671 2.530 o 476 NIL_476    0.000
6850 N 20.579 47.911 6.599 n 476 NIL_476    0.000
6851 C_1320 22.999 47.702 6.799 c 476 NIL_476    0.000
6852 O 24.130 47.610 6.369 o 476 NIL_476    0.000
6853 H_13131 23.137 49.332 4.928 hc 476 NIL_476    0.000
6854 H_13132 21.532 49.962 5.310 hc 476 NIL_476    0.000
6855 H_13151 22.804 46.167 4.651 h1 476 NIL_476    0.000
6856 H_13152 20.246 45.315 5.223 h1 476 NIL_476    0.000
6857 H_1312 20.636 49.173 3.057 h1 476 NIL_476    0.000
6858 N 22.975 47.385 -12.060 n 477 NIL_477    0.000
6859 C_1302 21.952 48.375 -11.845 c3 477 NIL_477    0.000
6860 C_1305 23.220 46.764 -10.705 c3 477 NIL_477    0.000
6861 C_1303 21.933 48.751 -10.315 c3 477 NIL_477    0.000
6862 C_1307 22.047 49.494 -12.876 c 477 NIL_477    0.000
6863 C_1304 22.772 47.709 -9.498 c3 477 NIL_477    0.000
6864 O 21.647 50.613 -12.628 o 477 NIL_477    0.000
6865 N 23.944 48.388 -8.914 n 477 NIL_477    0.000
6866 C_1316 22.021 47.004 -8.305 c 477 NIL_477    0.000
6867 O 21.314 46.038 -8.507 o 477 NIL_477    0.000
6868 H_13031 22.370 49.743 -10.175 hc 477 NIL_477    0.000
6869 H_13032 20.904 48.782 -9.951 hc 477 NIL_477    0.000
6870 H_13051 24.055 46.623 -10.765 h1 477 NIL_477    0.000
6871 H_13052 22.651 45.834 -10.658 h1 477 NIL_477    0.000
6872 H_1302 21.003 47.878 -12.067 h1 477 NIL_477    0.000
6873 N 21.722 38.039 3.363 n 478 NIL_478    0.000
6874 C_2365 21.153 39.299 3.762 c3 478 NIL_478    0.000
6875 C_2368 21.964 37.311 4.679 c3 478 NIL_478    0.000
6876 C_2366 21.748 39.619 5.177 c3 478 NIL_478    0.000
6877 C_2370 21.280 40.361 2.684 c 478 NIL_478    0.000
6878 C_2367 21.891 38.275 5.962 c3 478 NIL_478    0.000
6879 O 21.233 41.541 2.965 o 478 NIL_478    0.000
6880 N 20.764 38.092 6.934 n 478 NIL_478    0.000
6881 C_2373 23.187 38.262 6.787 c 478 NIL_478    0.000
6882 O 24.244 38.472 6.227 o 478 NIL_478    0.000
6883 H_23661 22.732 40.069 5.052 hc 478 NIL_478    0.000
6884 H_23662 21.241 40.347 5.765 hc 478 NIL_478    0.000
6885 H_23681 22.951 36.846 4.636 h1 478 NIL_478    0.000
6886 H_23682 21.218 36.519 4.784 h1 478 NIL_478    0.000
6887 H_2365 20.079 39.127 3.877 h1 478 NIL_478    0.000
6888 C_3514 32.330 41.286 4.541 c3 479 NIL_479    0.000
6889 C_3013 32.108 42.998 4.248 c3 479 NIL_479    0.000
6890 C_3012 32.385 43.463 5.571 c3 479 NIL_479    0.000
6891 H_30121 33.368 43.122 5.906 h1 479 NIL_479    0.000
6892 H_30122 32.380 44.556 5.541 h1 479 NIL_479    0.000
6893 H_30131 32.906 43.210 3.485 hc 479 NIL_479    0.000
6894 H_30132 31.184 43.334 3.790 hc 479 NIL_479    0.000
6895 H_35141 32.944 40.945 4.581 hc 479 NIL_479    0.000
6896 H_35142 32.218 40.749 3.198 hc 479 NIL_479    0.000
6897 H_35143 31.785 41.428 4.302 hc 479 NIL_479    0.000
6898 C_1415 21.869 46.799 -5.656 c3 480 NIL_480    0.000
6899 C_1414 22.225 47.740 -4.413 c3 480 NIL_480    0.000
6900 N 22.296 47.419 -6.983 n 480 NIL_480    0.000
6901 C_1413 23.296 48.594 -5.159 c3 480 NIL_480    0.000
6902 N 21.074 48.581 -3.985 n 480 NIL_480    0.000
6903 C_1426 22.874 47.100 -3.127 c 480 NIL_480    0.000
6904 C_1412 22.918 48.665 -6.676 c3 480 NIL_480    0.000
6905 O 23.933 46.510 -3.209 o 480 NIL_480    0.000
6906 C_1417 24.067 48.884 -7.649 c 480 NIL_480    0.000
6907 O 25.089 49.441 -7.305 o 480 NIL_480    0.000
6908 H_1412 22.218 49.487 -6.835 h1 480 NIL_480    0.000
6909 H_14131 24.259 48.086 -5.078 hc 480 NIL_480    0.000
6910 H_14132 23.398 49.585 -4.714 hc 480 NIL_480    0.000
6911 H_14151 22.449 45.880 -5.577 h1 480 NIL_480    0.000
6912 H_14152 21.021 46.417 -5.539 h1 480 NIL_480    0.000
6913 C_2285 23.314 36.265 15.088 c3 481 NIL_481    0.000
6914 C_766 22.938 37.352 14.094 c 481 NIL_481    0.000
6915 O 22.967 38.530 14.381 o 481 NIL_481    0.000
6916 H_22851 22.395 35.751 15.378 h1 481 NIL_481    0.000
6917 H_22852 23.963 35.558 14.562 h1 481 NIL_481    0.000
6918 N 22.297 47.284 -1.877 n 482 NIL_482    0.000
6919 C_1422 20.908 47.617 -1.694 c3 482 NIL_482    0.000
6920 C_1425 22.838 47.015 -0.490 c3 482 NIL_482    0.000
6921 C_1423 20.661 47.966 -0.174 c3 482 NIL_482    0.000
6922 C_1427 20.454 48.602 -2.765 c 482 NIL_482    0.000
6923 C_1424 21.954 47.680 0.664 c3 482 NIL_482    0.000
6924 O 19.568 49.405 -2.550 o 482 NIL_482    0.000
6925 C_1428 21.783 46.801 1.933 c 482 NIL_482    0.000
6926 N 22.518 48.971 1.108 n 482 NIL_482    0.000
6927 O 21.670 45.585 1.856 o 482 NIL_482    0.000
6928 H_14231 20.388 49.020 -0.078 hc 482 NIL_482    0.000
6929 H_14232 19.829 47.370 0.209 hc 482 NIL_482    0.000
6930 H_14251 23.866 47.379 -0.425 h1 482 NIL_482    0.000
6931 H_14252 22.841 45.932 -0.343 h1 482 NIL_482    0.000
6932 H_1422 20.350 46.703 -1.908 h1 482 NIL_482    0.000
6933 C_188 22.327 32.217 18.545 c3 483 NIL_483    0.000
6934 C_112 21.432 33.015 17.586 c3 483 NIL_483    0.000
6935 H_1121 21.460 32.563 16.591 h1 483 NIL_483    0.000
6936 H_1122 20.398 33.003 17.945 h1 483 NIL_483    0.000
6937 H_1881 21.955 31.196 18.654 hc 483 NIL_483    0.000
6938 H_1882 22.315 32.686 19.530 hc 483 NIL_483    0.000
6939 H_1883 23.362 32.180 18.190 hc 483 NIL_483    0.000
6940 N 29.892 39.396 18.984 n 484 NIL_484    0.000
6941 C_133 30.756 39.319 17.819 c3 484 NIL_484    0.000
6942 C_136 30.612 40.104 20.060 c3 484 NIL_484    0.000
6943 C_134 32.197 39.546 18.318 c3 484 NIL_484    0.000
6944 C_138 30.564 38.038 17.048 c 484 NIL_484    0.000
6945 C.fc 32.061 40.414 19.586 c3 484 NIL_484    0.000
6946 O 31.439 37.573 16.346 o 484 NIL_484    0.000
6947 NH 32.239 41.851 19.311 n 484 NIL_484    0.000
6948 H.fc 32.787 40.108 20.343 h1 484 NIL_484    0.000
6949 H_1341 32.815 40.031 17.562 hc 484 NIL_484    0.000
6950 H_1342 32.645 38.586 18.582 hc 484 NIL_484    0.000
6951 H_1361 30.642 39.455 20.940 h1 484 NIL_484    0.000
6952 H_1362 30.086 41.029 20.306 h1 484 NIL_484    0.000
6953 H_133 30.478 40.136 17.148 h1 484 NIL_484    0.000
6954 HH 31.409 42.317 18.977 hn 484 NIL_484    0.000
6955 C_737 19.475 39.202 19.716 c3 485 NIL_485    0.000
6956 C.fb 19.126 37.789 19.169 c3 485 NIL_485    0.000
6957 N 19.336 40.193 18.630 n 485 NIL_485    0.000
6958 C_735 18.481 38.115 17.806 c3 485 NIL_485    0.000
6959 NH 20.319 36.931 19.043 n 485 NIL_485    0.000
6960 C_734 19.056 39.486 17.396 c3 485 NIL_485    0.000
6961 C_739 18.172 40.274 16.462 c 485 NIL_485    0.000
6962 O 17.498 39.734 15.608 o 485 NIL_485    0.000
6963 H_734 20.010 39.338 16.880 h1 485 NIL_485    0.000
6964 H_7351 18.680 37.345 17.057 hc 485 NIL_485    0.000
6965 H_7352 17.399 38.206 17.936 hc 485 NIL_485    0.000
6966 H.fb 18.404 37.292 19.821 h1 485 NIL_485    0.000
6967 H_7371 18.780 39.466 20.516 h1 485 NIL_485    0.000
6968 H_7372 20.498 39.217 20.100 h1 485 NIL_485    0.000
6969 HH 21.151 37.408 18.732 hn 485 NIL_485    0.000
6970 C_2526 19.000 38.100 -4.857 c3 486 NIL_486    0.000
6971 C_2527 18.677 39.542 -5.312 c3 486 NIL_486    0.000
6972 C_3504 17.734 39.513 -6.531 c3 486 NIL_486    0.000
6973 H_35041 17.552 40.532 -6.881 hc 486 NIL_486    0.000
6974 H_35042 16.783 39.068 -6.239 hc 486 NIL_486    0.000
6975 H_35043 18.156 38.931 -7.354 hc 486 NIL_486    0.000
6976 H_25271 19.524 40.064 -5.598 hc 486 NIL_486    0.000
6977 H_25272 18.286 40.117 -4.529 hc 486 NIL_486    0.000
6978 H_25261 18.081 37.648 -4.480 h1 486 NIL_486    0.000
6979 H_25262 19.372 37.501 -5.695 h1 486 NIL_486    0.000
6980 C_2858 30.485 42.879 8.929 c3 487 NIL_487    0.000
6981 C_2854 31.503 43.335 7.866 c 487 NIL_487    0.000
6982 NH 29.663 41.813 8.291 n 487 NIL_487    0.000
6983 C_2870 31.150 42.666 10.421 c3 487 NIL_487    0.000
6984 O 32.455 44.005 8.210 o 487 NIL_487    0.000
6985 C_2878 30.394 42.842 11.868 c3 487 NIL_487    0.000
6986 NH 31.171 43.332 13.022 n 487 NIL_487    0.000
6987 H_28781 29.580 43.558 11.720 h1 487 NIL_487    0.000
6988 H_28782 29.938 41.888 12.143 h1 487 NIL_487    0.000
6989 H_28701 31.960 43.397 10.455 hc 487 NIL_487    0.000
6990 H_28702 31.646 41.694 10.425 hc 487 NIL_487    0.000
6991 H_2858 29.817 43.739 9.021 h1 487 NIL_487    0.000
6992 HH 32.177 43.250 13.010 hn 487 NIL_487    0.000
6993 HH 29.054 41.320 8.926 hn 487 NIL_487    0.000
6994 C_1478 23.205 49.649 0.014 c3 488 NIL_488    0.000
6995 C_1479 22.212 50.230 -1.005 c3 488 NIL_488    0.000
6996 C_3530 21.326 51.290 -0.336 c3 488 NIL_488    0.000
6997 H_35301 20.761 50.846 0.487 hc 488 NIL_488    0.000
6998 H_35302 20.621 51.705 -1.059 hc 488 NIL_488    0.000
6999 H_35303 21.944 52.100 0.057 hc 488 NIL_488    0.000
7000 H_14791 21.587 49.433 -1.409 hc 488 NIL_488    0.000
7001 H_14792 22.758 50.679 -1.836 hc 488 NIL_488    0.000
7002 H_14781 23.851 48.926 -0.486 h1 488 NIL_488    0.000
7003 H_14782 23.822 50.451 0.425 h1 488 NIL_488    0.000
7004 C_3010 30.636 39.302 0.349 c3 489 NIL_489    0.000
7005 C_3011 31.777 39.352 -0.679 c3 489 NIL_489    0.000
7006 C_3516 33.134 39.231 0.028 c3 489 NIL_489    0.000
7007 H_35161 33.268 40.052 0.736 hc 489 NIL_489    0.000
7008 H_35162 33.945 39.267 -0.702 hc 489 NIL_489    0.000
7009 H_35163 33.194 38.287 0.574 hc 489 NIL_489    0.000
7010 H_30111 31.734 40.289 -1.237 hc 489 NIL_489    0.000
7011 H_30112 31.662 38.533 -1.392 hc 489 NIL_489    0.000
7012 H_30101 29.676 39.343 -0.166 h1 489 NIL_489    0.000
7013 H_30102 30.697 38.360 0.900 h1 489 NIL_489    0.000
7014 C_1477 19.568 48.970 -5.933 c3 490 NIL_490    0.000
7015 C_1476 20.672 49.529 -5.024 c3 490 NIL_490    0.000
7016 C_3532 20.013 47.677 -6.628 c3 490 NIL_490    0.000
7017 H_35321 20.857 47.858 -7.205 hc 490 NIL_490    0.000
7018 H_35322 19.227 47.316 -7.293 hc 490 NIL_490    0.000
7019 H_35323 19.991 47.035 -5.976 hc 490 NIL_490    0.000
7020 H_14761 21.544 49.780 -5.627 h1 490 NIL_490    0.000
7021 H_14762 20.303 50.440 -4.543 h1 490 NIL_490    0.000
7022 H_14771 19.306 49.720 -6.685 hc 490 NIL_490    0.000
7023 H_14772 18.681 48.763 -5.330 hc 490 NIL_490    0.000
7024 C_1472 25.630 46.970 -9.999 c3 491 NIL_491    0.000
7025 C_1471 25.067 48.389 -9.844 c3 491 NIL_491    0.000
7026 C_3542 26.675 46.918 -11.120 c3 491 NIL_491    0.000
7027 H_35421 27.026 45.893 -11.256 hc 491 NIL_491    0.000
7028 H_35422 27.530 47.552 -10.873 hc 491 NIL_491    0.000
7029 H_35423 26.242 47.267 -12.060 hc 491 NIL_491    0.000
7030 H_14711 25.844 49.061 -9.473 h1 491 NIL_491    0.000
7031 H_14712 24.714 48.750 -10.813 h1 491 NIL_491    0.000
7032 H_14721 25.035 46.184 -10.082 hc 491 NIL_491    0.000
7033 H_14722 26.069 46.641 -9.058 hc 491 NIL_491    0.000
7034 C_660 35.040 44.905 17.915 c3 492 NIL_492    0.000
7035 C_662 35.120 46.119 18.853 c3 492 NIL_492    0.000
7036 H_6621 34.535 46.949 18.452 hc 492 NIL_492    0.000
7037 H_6622 36.152 46.455 18.958 hc 492 NIL_492    0.000
7038 H_6623 34.735 45.860 19.840 hc 492 NIL_492    0.000
7039 H_6601 35.464 45.173 16.943 h1 492 NIL_492    0.000
7040 H_6602 35.616 44.073 18.332 h1 492 NIL_492    0.000
7041 C_3009 32.462 42.831 -5.971 c3 493 NIL_493    0.000
7042 C_3008 32.435 41.651 -4.990 c3 493 NIL_493    0.000
7043 C_3518 31.117 43.034 -6.623 c3 493 NIL_493    0.000
7044 H_35181 30.777 42.813 -6.444 hc 493 NIL_493    0.000
7045 H_35182 31.109 42.181 -7.237 hc 493 NIL_493    0.000
7046 H_35183 31.094 43.853 -7.315 hc 493 NIL_493    0.000
7047 H_30081 32.174 40.734 -5.519 h1 493 NIL_493    0.000
7048 H_30082 33.424 41.524 -4.541 h1 493 NIL_493    0.000
7049 H_30091 33.209 42.649 -6.747 hc 493 NIL_493    0.000
7050 H_30092 32.742 43.744 -5.442 hc 493 NIL_493    0.000
7051 C_2299 20.118 47.786 15.307 c3 494 NIL_494    0.000
7052 C_309 21.022 47.357 14.169 c 494 NIL_494    0.000
7053 O 21.794 46.439 14.253 o 494 NIL_494    0.000
7054 H_22991 20.485 48.680 15.584 h1 494 NIL_494    0.000
7055 H_22992 19.128 47.905 14.883 h1 494 NIL_494    0.000
7056 C_769 20.021 49.915 16.534 c3 495 NIL_495    0.000
7057 C_770 19.514 50.022 15.079 c3 495 NIL_495    0.000
7058 H_7701 19.049 49.137 14.759 hc 495 NIL_495    0.000
7059 H_7702 20.344 50.240 14.403 hc 495 NIL_495    0.000
7060 H_7703 18.775 50.816 15.002 hc 495 NIL_495    0.000
7061 H_7691 20.763 49.114 16.696 h1 495 NIL_495    0.000
7062 H_7692 20.535 50.825 16.814 h1 495 NIL_495    0.000
7063 C_3691 35.634 45.361 -19.171 c2 496 NIL_496    0.000
7064 C_3689 36.321 46.525 -19.078 c2 496 NIL_496    0.000
7065 C_3693 35.821 44.295 -18.372 c2 496 NIL_496    0.000
7066 C_3585 37.274 46.757 -18.166 c2 496 NIL_496    0.000
7067 C_3695 36.773 44.537 -17.458 c2 496 NIL_496    0.000
7068 C_3705 34.997 42.905 -18.511 c3 496 NIL_496    0.000
7069 C_1296 38.105 47.988 -18.090 c 496 NIL_496    0.000
7070 C_3697 37.460 45.699 -17.360 c2 496 NIL_496    0.000
7071 NH 35.540 41.681 -17.681 n 496 NIL_496    0.000
7072 O 38.035 48.863 -18.930 o 496 NIL_496    0.000
7073 C_2350 36.584 40.747 -17.888 c 496 NIL_496    0.000
7074 C_2345 36.865 39.513 -16.891 c3 496 NIL_496    0.000
7075 O 37.306 40.880 -18.855 o 496 NIL_496    0.000
7076 N 37.950 38.432 -17.016 n 496 NIL_496    0.000
7077 C_2346 37.062 40.078 -15.396 c3 496 NIL_496    0.000
7078 C_2348 38.508 38.262 -15.617 c3 496 NIL_496    0.000
7079 C_2347 37.625 38.942 -14.493 c3 496 NIL_496    0.000
7080 N 36.499 38.095 -14.050 n 496 NIL_496    0.000
7081 C_2359 38.421 39.448 -13.228 c 496 NIL_496    0.000
7082 C_3508 35.609 37.798 -15.168 c3 496 NIL_496    0.000
7083 O 39.328 40.243 -13.366 o 496 NIL_496    0.000
7084 C_3510 34.887 39.057 -15.675 c3 496 NIL_496    0.000
7085 C_3512 34.062 39.704 -14.576 c3 496 NIL_496    0.000
7086 H_35121 33.326 38.995 -14.193 hc 496 NIL_496    0.000
7087 H_35122 33.537 40.581 -14.962 hc 496 NIL_496    0.000
7088 H_35123 34.708 40.019 -13.754 hc 496 NIL_496    0.000
7089 H_35101 34.255 38.793 -16.528 hc 496 NIL_496    0.000
7090 H_35102 35.582 39.796 -16.017 hc 496 NIL_496    0.000
7091 H_35081 34.866 37.066 -14.844 h1 496 NIL_496    0.000
7092 H_35082 36.202 37.361 -15.975 h1 496 NIL_496    0.000
7093 H_23481 39.467 38.731 -15.570 h1 496 NIL_496    0.000
7094 H_23482 38.622 37.197 -15.400 h1 496 NIL_496    0.000
7095 H_23461 37.769 40.891 -15.446 hc 496 NIL_496    0.000
7096 H_23462 36.120 40.480 -14.982 hc 496 NIL_496    0.000
7097 H_2345 35.903 38.951 -16.908 h1 496 NIL_496    0.000
7098 H_3697 38.210 45.765 -16.609 ha 496 NIL_496    0.000
7099 H_37051 33.964 43.082 -18.202 h1 496 NIL_496    0.000
7100 H_37052 34.981 42.610 -19.564 h1 496 NIL_496    0.000
7101 H_3695 37.016 43.743 -16.756 ha 496 NIL_496    0.000
7102 H_3689 36.095 47.312 -19.795 ha 496 NIL_496    0.000
7103 H_3691 34.884 45.276 -19.952 ha 496 NIL_496    0.000
7104 HH 34.995 41.512 -16.848 hn 496 NIL_496    0.000
7105 C_3522 48.727 40.681 -15.152 c3 497 NIL_497    0.000
7106 N 47.885 41.228 -14.095 n 497 NIL_497    0.000
7107 C_3524 50.115 40.337 -14.604 c3 497 NIL_497    0.000
7108 C_2829 46.518 41.522 -14.579 c3 497 NIL_497    0.000
7109 C_3526 50.792 41.616 -14.091 c3 497 NIL_497    0.000
7110 C_2828 46.013 40.370 -15.505 c3 497 NIL_497    0.000
7111 C_2830 46.497 42.659 -15.683 c3 497 NIL_497    0.000
7112 C_2841 45.583 41.717 -13.328 c 497 NIL_497    0.000
7113 C_2827 46.480 40.601 -16.991 c3 497 NIL_497    0.000
7114 N 46.753 42.135 -17.087 n 497 NIL_497    0.000
7115 O 44.380 41.783 -13.477 o 497 NIL_497    0.000
7116 C_2832 45.489 39.786 -17.970 c 497 NIL_497    0.000
7117 O 45.018 40.341 -18.942 o 497 NIL_497    0.000
7118 NH 45.158 38.431 -17.731 n 497 NIL_497    0.000
7119 C_3643 44.334 37.365 -18.544 c3 497 NIL_497    0.000
7120 C_3631 42.716 37.392 -18.382 c2 497 NIL_497    0.000
7121 C_3629 41.868 36.828 -19.259 c2 497 NIL_497    0.000
7122 C_3633 42.049 37.975 -17.373 c2 497 NIL_497    0.000
7123 C_3627 40.516 36.850 -19.151 c2 497 NIL_497    0.000
7124 C_3635 40.697 38.001 -17.263 c2 497 NIL_497    0.000
7125 C_2378 39.856 37.443 -18.147 c2 497 NIL_497    0.000
7126 C_2349 38.371 37.557 -18.067 c 497 NIL_497    0.000
7127 O 37.659 37.144 -18.958 o 497 NIL_497    0.000
7128 H_3635 40.301 38.514 -16.446 ha 497 NIL_497    0.000
7129 H_3627 39.934 36.377 -19.937 ha 497 NIL_497    0.000
7130 H_3633 42.630 38.471 -16.600 ha 497 NIL_497    0.000
7131 H_3629 42.297 36.327 -20.123 ha 497 NIL_497    0.000
7132 H_36431 44.698 36.376 -18.256 h1 497 NIL_497    0.000
7133 H_36432 44.573 37.506 -19.601 h1 497 NIL_497    0.000
7134 H_2827 47.452 40.115 -17.104 h1 497 NIL_497    0.000
7135 H_28301 45.514 43.125 -15.667 h1 497 NIL_497    0.000
7136 H_28302 47.243 43.420 -15.436 h1 497 NIL_497    0.000
7137 H_28281 44.922 40.384 -15.494 hc 497 NIL_497    0.000
7138 H_28282 46.339 39.397 -15.135 hc 497 NIL_497    0.000
7139 H_35261 51.761 41.383 -13.648 hc 497 NIL_497    0.000
7140 H_35262 50.181 42.118 -13.346 hc 497 NIL_497    0.000
7141 H_35263 50.939 42.316 -14.912 hc 497 NIL_497    0.000
7142 H_35241 50.725 39.886 -15.388 hc 497 NIL_497    0.000
7143 H_35242 50.014 39.615 -13.791 hc 497 NIL_497    0.000
7144 H_35221 48.822 41.427 -15.946 h1 497 NIL_497    0.000
7145 H_35222 48.253 39.784 -15.558 h1 497 NIL_497    0.000
7146 HH 45.564 38.045 -16.891 hn 497 NIL_497    0.000
7147 N 36.497 38.093 -3.788 n 498 NIL_498    0.000
7148 C_2464 37.790 38.632 -4.267 c3 498 NIL_498    0.000
7149 C_2463 37.504 39.955 -5.013 c3 498 NIL_498    0.000
7150 C_2465 38.381 37.857 -5.542 c3 498 NIL_498    0.000
7151 C_2476 38.761 38.834 -3.038 c 498 NIL_498    0.000
7152 C_2462 37.112 39.480 -6.538 c3 498 NIL_498    0.000
7153 N 37.933 38.472 -6.860 n 498 NIL_498    0.000
7154 O 39.865 39.309 -3.217 o 498 NIL_498    0.000
7155 C_2467 36.889 40.597 -7.529 c 498 NIL_498    0.000
7156 O 36.530 41.718 -7.235 o 498 NIL_498    0.000
7157 H_2462 36.067 39.032 -6.433 h1 498 NIL_498    0.000
7158 H_24651 39.472 37.897 -5.501 h1 498 NIL_498    0.000
7159 H_24652 38.067 36.809 -5.515 h1 498 NIL_498    0.000
7160 H_24631 38.376 40.567 -5.083 hc 498 NIL_498    0.000
7161 H_24632 36.699 40.538 -4.517 hc 498 NIL_498    0.000
7162 C_268 40.364 50.445 18.154 c3 499 NIL_499    0.000
7163 C_267 41.201 49.249 17.661 c3 499 NIL_499    0.000
7164 C.fa 39.601 49.937 19.396 c3 499 NIL_499    0.000
7165 N 41.489 48.446 18.833 n 499 NIL_499    0.000
7166 C_272 42.442 49.638 16.899 c 499 NIL_499    0.000
7167 C_270 40.450 48.713 19.845 c3 499 NIL_499    0.000
7168 NH 38.211 49.551 19.098 n 499 NIL_499    0.000
7169 O 42.471 50.610 16.172 o 499 NIL_499    0.000
7170 H_2701 40.932 48.923 20.802 h1 499 NIL_499    0.000
7171 H_2702 39.813 47.831 19.948 h1 499 NIL_499    0.000
7172 H.fa 39.595 50.704 20.175 h1 499 NIL_499    0.000
7173 H_267 40.596 48.635 16.987 h1 499 NIL_499    0.000
7174 H_2681 39.687 50.819 17.383 hc 499 NIL_499    0.000
7175 H_2682 41.039 51.248 18.456 hc 499 NIL_499    0.000
7176 HH 38.117 48.636 18.694 hn 499 NIL_499    0.000
7177 C_2530 35.990 38.361 6.275 c3 500 NIL_500    0.000
7178 C_2531 35.822 39.855 5.962 c3 500 NIL_500    0.000
7179 C_3500 34.506 40.101 5.216 c3 500 NIL_500    0.000
7180 H_35001 34.496 39.551 4.273 hc 500 NIL_500    0.000
7181 H_35002 34.385 41.165 5.001 hc 500 NIL_500    0.000
7182 H_35003 33.660 39.768 5.822 hc 500 NIL_500    0.000
7183 H_25311 36.528 40.183 5.301 hc 500 NIL_500    0.000
7184 H_25312 35.833 40.427 6.892 hc 500 NIL_500    0.000
7185 H_25301 35.179 38.037 6.932 h1 500 NIL_500    0.000
7186 H_25302 35.945 37.786 5.347 h1 500 NIL_500    0.000
7187 C_728 34.712 48.409 17.034 c3 501 NIL_501    0.000
7188 C_727 35.614 47.248 17.499 c3 501 NIL_501    0.000
7189 N 35.397 49.655 17.436 n3 501 NIL_501    0.000
7190 C_726 36.388 47.908 18.667 c3 501 NIL_501    0.000
7191 N 36.505 46.810 16.402 n 501 NIL_501    0.000
7192 C_738 34.779 46.091 18.030 c 501 NIL_501    0.000
7193 C_725 35.906 49.377 18.786 c3 501 NIL_501    0.000
7194 O 33.694 46.260 18.547 o 501 NIL_501    0.000
7195 C_729 37.053 50.250 19.279 c 501 NIL_501    0.000
7196 O 36.972 51.371 19.737 o 501 NIL_501    0.000
7197 H_725 35.085 49.436 19.506 h1 501 NIL_501    0.000
7198 H_7261 37.452 47.882 18.441 hc 501 NIL_501    0.000
7199 H_7262 36.223 47.372 19.604 hc 501 NIL_501    0.000
7200 H_7281 34.537 48.381 15.956 h1 501 NIL_501    0.000
7201 H_7282 33.757 48.350 17.561 h1 501 NIL_501    0.000
7202 C_2960 46.192 42.551 1.953 c 502 NIL_502    0.000
7203 C_2956 46.696 41.679 0.739 c3 502 NIL_502    0.000
7204 O 45.383 43.438 1.768 o 502 NIL_502    0.000
7205 C_2955 47.829 42.335 -0.114 c3 502 NIL_502    0.000
7206 C_2957 45.631 41.431 -0.431 c3 502 NIL_502    0.000
7207 N 47.203 40.406 1.305 n 502 NIL_502    0.000
7208 C_2954 47.352 42.521 -1.599 c3 502 NIL_502    0.000
7209 N 46.188 41.703 -1.814 n 502 NIL_502    0.000
7210 C_2959 48.381 42.304 -2.695 c 502 NIL_502    0.000
7211 O 49.562 42.489 -2.484 o 502 NIL_502    0.000
7212 H_2954 47.015 43.554 -1.712 h1 502 NIL_502    0.000
7213 H_29571 45.271 40.401 -0.388 h1 502 NIL_502    0.000
7214 H_29572 44.777 42.096 -0.274 h1 502 NIL_502    0.000
7215 H_29551 48.698 41.673 -0.103 hc 502 NIL_502    0.000
7216 H_29552 48.129 43.292 0.312 hc 502 NIL_502    0.000
7217 N 42.557 36.717 18.082 n 503 NIL_503    0.000
7218 C_3832 42.307 37.974 17.403 c3 503 NIL_503    0.000
7219 C_3835 43.947 36.695 18.570 c3 503 NIL_503    0.000
7220 C_3833 43.692 38.542 17.022 c3 503 NIL_503    0.000
7221 C_3837 41.362 37.801 16.234 c 503 NIL_503    0.000
7222 C_3834 44.726 37.894 17.969 c3 503 NIL_503    0.000
7223 O 41.411 38.510 15.250 o 503 NIL_503    0.000
7224 N 45.881 37.402 17.204 n 503 NIL_503    0.000
7225 C_3841 45.152 38.854 19.074 c 503 NIL_503    0.000
7226 H 45.747 36.535 16.705 hn 503 NIL_503    0.000
7227 O 44.448 39.071 20.039 o 503 NIL_503    0.000
7228 H_38331 43.928 38.245 15.999 hc 503 NIL_503    0.000
7229 H_38332 43.715 39.632 17.086 hc 503 NIL_503    0.000
7230 H_38351 44.421 35.760 18.261 h1 503 NIL_503    0.000
7231 H_38352 43.953 36.765 19.661 h1 503 NIL_503    0.000
7232 H_3832 41.822 38.645 18.116 h1 503 NIL_503    0.000
7233 C_3502 39.976 42.223 1.314 c3 504 NIL_504    0.000
7234 C_2529 39.457 41.472 0.080 c3 504 NIL_504    0.000
7235 C_2528 38.024 40.978 0.324 c3 504 NIL_504    0.000
7236 H_25281 37.392 41.825 0.600 h1 504 NIL_504    0.000
7237 H_25282 37.637 40.535 -0.597 h1 504 NIL_504    0.000
7238 H_25291 39.473 42.141 -0.782 hc 504 NIL_504    0.000
7239 H_25292 40.126 40.658 -0.134 hc 504 NIL_504    0.000
7240 H_35021 39.991 41.562 2.182 hc 504 NIL_504    0.000
7241 H_35022 39.330 43.074 1.538 hc 504 NIL_504    0.000
7242 H_35023 40.988 42.592 1.139 hc 504 NIL_504    0.000
7243 C_3887 34.582 43.584 18.124 c3 505 NIL_505    0.000
7244 C_3886 35.426 42.395 17.593 c3 505 NIL_505    0.000
7245 N 35.281 44.849 17.846 n 505 NIL_505    0.000
7246 C_3885 36.603 43.099 16.873 c3 505 NIL_505    0.000
7247 N 34.632 41.614 16.632 n 505 NIL_505    0.000
7248 C_3892 35.908 41.541 18.764 c 505 NIL_505    0.000
7249 C_3884 36.616 44.567 17.356 c3 505 NIL_505    0.000
7250 H 34.026 42.146 16.025 hn 505 NIL_505    0.000
7251 O 36.271 42.039 19.810 o 505 NIL_505    0.000
7252 C_3888 37.052 45.573 16.311 c 505 NIL_505    0.000
7253 O 37.786 45.256 15.418 o 505 NIL_505    0.000
7254 H_3884 37.301 44.663 18.202 h1 505 NIL_505    0.000
7255 H_38851 36.421 43.081 15.795 hc 505 NIL_505    0.000
7256 H_38852 37.555 42.603 17.070 hc 505 NIL_505    0.000
7257 H_38871 33.611 43.599 17.623 h1 505 NIL_505    0.000
7258 H_38872 34.430 43.486 19.201 h1 505 NIL_505    0.000
7259 C_2292 47.863 44.257 15.312 c3 506 NIL_506    0.000
7260 C_243 47.029 43.818 14.116 c 506 NIL_506    0.000
7261 O 45.855 43.868 14.068 o 506 NIL_506    0.000
7262 H_22921 48.415 43.385 15.673 h1 506 NIL_506    0.000
7263 H_22922 48.570 45.014 14.964 h1 506 NIL_506    0.000
7264 C_2474 38.069 38.608 0.838 c3 507 NIL_507    0.000
7265 C_2473 36.771 38.193 0.059 c3 507 NIL_507    0.000
7266 C_2475 39.076 38.642 -0.408 c3 507 NIL_507    0.000
7267 C_2478 38.394 37.633 2.040 c 507 NIL_507    0.000
7268 N 37.956 39.977 1.386 n 507 NIL_507    0.000
7269 C_2472 37.170 37.785 -1.405 c3 507 NIL_507    0.000
7270 N 38.364 38.511 -1.741 n 507 NIL_507    0.000
7271 O 38.815 36.516 1.816 o 507 NIL_507    0.000
7272 C_2477 36.114 37.846 -2.499 c 507 NIL_507    0.000
7273 O 34.944 37.655 -2.240 o 507 NIL_507    0.000
7274 H_2472 37.472 36.735 -1.369 h1 507 NIL_507    0.000
7275 H_24751 39.626 39.543 -0.400 h1 507 NIL_507    0.000
7276 H_24752 39.775 37.806 -0.324 h1 507 NIL_507    0.000
7277 H_24731 36.095 39.050 0.018 hc 507 NIL_507    0.000
7278 H_24732 36.252 37.374 0.564 hc 507 NIL_507    0.000
7279 C_2521 36.949 41.283 -9.880 c3 508 NIL_508    0.000
7280 C_2522 38.076 41.421 -10.878 c3 508 NIL_508    0.000
7281 C_3506 39.401 41.827 -10.114 c3 508 NIL_508    0.000
7282 H_35061 39.660 41.080 -9.347 hc 508 NIL_508    0.000
7283 H_35062 39.233 42.775 -9.643 hc 508 NIL_508    0.000
7284 H_35063 40.232 41.899 -10.814 hc 508 NIL_508    0.000
7285 H_25221 37.899 42.073 -11.654 hc 508 NIL_508    0.000
7286 H_25222 38.194 40.475 -11.441 hc 508 NIL_508    0.000
7287 H_25211 36.808 42.261 -9.415 h1 508 NIL_508    0.000
7288 H_25212 36.040 41.019 -10.426 h1 508 NIL_508    0.000
7289 C_111 39.818 34.490 17.069 c3 509 NIL_509    0.000
7290 C_110 40.335 35.882 17.484 c3 509 NIL_509    0.000
7291 N 38.407 34.403 17.497 n3 509 NIL_509    0.000
7292 C_109 39.224 36.364 18.458 c3 509 NIL_509    0.000
7293 N 40.504 36.755 16.297 n 509 NIL_509    0.000
7294 C_137 41.642 35.735 18.249 c 509 NIL_509    0.000
7295 C_108 38.318 35.142 18.763 c3 509 NIL_509    0.000
7296 O 41.875 34.762 18.934 o 509 NIL_509    0.000
7297 C_113 36.921 35.579 19.198 c 509 NIL_509    0.000
7298 O 36.020 34.853 19.566 o 509 NIL_509    0.000
7299 H_108 38.760 34.555 19.572 h1 509 NIL_509    0.000
7300 H_1091 38.634 37.140 17.961 hc 509 NIL_509    0.000
7301 H_1092 39.645 36.785 19.375 hc 509 NIL_509    0.000
7302 H_1111 39.912 34.342 15.990 h1 509 NIL_509    0.000
7303 H_1112 40.393 33.726 17.598 h1 509 NIL_509    0.000
7304 C_2855 45.970 41.561 6.943 c 510 NIL_510    0.000
7305 C_2849 46.885 42.142 5.845 c3 510 NIL_510    0.000
7306 O 45.071 40.811 6.620 o 510 NIL_510    0.000
7307 C_2848 47.045 40.579 5.823 c3 510 NIL_510    0.000
7308 C_2850 46.141 42.812 4.593 c3 510 NIL_510    0.000
7309 N 47.881 43.009 6.529 n 510 NIL_510    0.000
7310 C_2847 47.112 41.510 3.289 c3 510 NIL_510    0.000
7311 N 46.601 42.261 3.243 n 510 NIL_510    0.000
7312 C_2852 47.560 40.079 2.443 c 510 NIL_510    0.000
7313 O 48.160 39.121 2.866 o 510 NIL_510    0.000
7314 H_2847 48.595 42.278 2.942 h1 510 NIL_510    0.000
7315 H_28501 45.071 42.624 4.674 h1 510 NIL_510    0.000
7316 H_28502 46.307 43.894 4.611 h1 510 NIL_510    0.000
7317 H_28481 46.924 40.084 5.145 hc 510 NIL_510    0.000
7318 H_28482 48.506 40.586 5.731 hc 510 NIL_510    0.000
7319 C_3520 47.011 37.232 -8.932 c3 511 NIL_511    0.000
7320 C_3007 45.659 37.732 -9.469 c3 511 NIL_511    0.000
7321 C_3006 45.794 39.160 -10.017 c3 511 NIL_511    0.000
7322 H_30061 46.497 39.171 -10.853 h1 511 NIL_511    0.000
7323 H_30062 44.819 39.505 -10.372 h1 511 NIL_511    0.000
7324 H_30071 45.310 37.062 -10.256 hc 511 NIL_511    0.000
7325 H_30072 44.921 37.719 -8.665 hc 511 NIL_511    0.000
7326 H_35201 47.475 37.878 -8.233 hc 511 NIL_511    0.000
7327 H_35202 47.742 37.161 -9.732 hc 511 NIL_511    0.000
7328 H_35203 46.891 36.248 -8.475 hc 511 NIL_511    0.000
7329 C_262 49.857 42.623 19.435 c 512 NIL_512    0.000
7330 C_257 49.513 44.033 18.979 c3 512 NIL_512    0.000
7331 O 50.938 42.228 19.823 o 512 NIL_512    0.000
7332 N 50.138 44.497 17.737 n3 512 NIL_512    0.000
7333 C_258 48.009 44.106 18.625 c3 512 NIL_512    0.000
7334 C_260 49.287 45.596 17.231 c3 512 NIL_512    0.000
7335 C_259 47.828 45.247 17.599 c3 512 NIL_512    0.000
7336 N 47.050 44.813 16.414 n 512 NIL_512    0.000
7337 C_271 47.177 46.427 18.303 c 512 NIL_512    0.000
7338 O 47.819 47.217 18.965 o 512 NIL_512    0.000
7339 H_2601 49.405 45.723 16.153 h1 512 NIL_512    0.000
7340 H_2602 49.565 46.522 17.740 h1 512 NIL_512    0.000
7341 H_2581 47.704 43.165 18.163 hc 512 NIL_512    0.000
7342 H_2582 47.396 44.267 19.515 hc 512 NIL_512    0.000
7343 H_257 49.735 44.730 19.790 h1 512 NIL_512    0.000
7344 N 47.965 41.871 -3.923 n 513 NIL_513    0.000
7345 C_2946 46.584 41.567 -4.364 c3 513 NIL_513    0.000
7346 C_2945 46.562 40.246 -5.194 c3 513 NIL_513    0.000
7347 C_2947 46.056 42.497 -5.525 c3 513 NIL_513    0.000
7348 C_2958 45.678 41.424 -3.078 c 513 NIL_513    0.000
7349 C_2944 46.972 40.595 -6.660 c3 513 NIL_513    0.000
7350 N 46.100 41.808 -6.871 n 513 NIL_513    0.000
7351 O 44.550 40.984 -3.175 o 513 NIL_513    0.000
7352 C_2949 46.569 39.609 -7.739 c 513 NIL_513    0.000
7353 O 46.390 38.472 -7.429 o 513 NIL_513    0.000
7354 H_2944 48.061 40.677 -6.715 h1 513 NIL_513    0.000
7355 H_29471 45.031 42.630 -5.518 h1 513 NIL_513    0.000
7356 H_29472 46.196 43.930 -4.905 h1 513 NIL_513    0.000
7357 H_29451 45.539 39.863 -5.206 hc 513 NIL_513    0.000
7358 H_29452 47.212 39.484 -4.758 hc 513 NIL_513    0.000
7359 C_1480 35.917 48.087 5.729 c3 514 NIL_514    0.000
7360 C_1481 36.276 47.951 4.243 c3 514 NIL_514    0.000
7361 C_3528 36.923 46.588 3.972 c3 514 NIL_514    0.000
7362 H_35281 36.235 45.806 4.208 hc 514 NIL_514    0.000
7363 H_35282 37.712 46.779 4.088 hc 514 NIL_514    0.000
7364 H_35283 37.130 46.468 2.934 hc 514 NIL_514    0.000
7365 H_14811 36.877 48.622 4.243 hc 514 NIL_514    0.000
7366 H_14812 35.377 48.053 3.633 hc 514 NIL_514    0.000
7367 H_14801 35.488 49.075 5.912 h1 514 NIL_514    0.000
7368 H_14802 35.174 47.328 5.989 h1 514 NIL_514    0.000
7369 C_2948 46.258 42.410 -8.233 c 515 NIL_515    0.000
7370 C_2937 46.419 41.463 -9.481 c3 515 NIL_515    0.000
7371 O 45.938 43.569 -8.378 o 515 NIL_515    0.000
7372 C_2936 47.773 41.599 -10.259 c3 515 NIL_515    0.000
7373 C_2938 45.421 41.750 -10.696 c3 515 NIL_515    0.000
7374 N 46.276 40.077 -8.986 n 515 NIL_515    0.000
7375 C_2935 47.497 41.991 -11.758 c3 515 NIL_515    0.000
7376 N 46.109 41.743 -12.043 n 515 NIL_515    0.000
7377 C_2939 48.386 41.388 -12.833 c 515 NIL_515    0.000
7378 O 49.505 41.018 -12.560 o 515 NIL_515    0.000
7379 H_2935 47.631 43.073 -11.849 h1 515 NIL_515    0.000
7380 H_29381 44.620 41.007 -10.702 h1 515 NIL_515    0.000
7381 H_29382 44.975 42.738 -10.561 h1 515 NIL_515    0.000
7382 H_29361 48.292 40.638 -10.231 hc 515 NIL_515    0.000
7383 H_29362 48.417 42.342 -9.785 hc 515 NIL_515    0.000
7384 C_1297 41.808 47.926 -17.895 c 516 NIL_516    0.000
7385 C_1292 40.581 48.414 -16.958 c3 516 NIL_516    0.000
7386 O 41.597 47.108 -18.768 o 516 NIL_516    0.000
7387 NH 43.126 48.419 -17.734 n 516 NIL_516    0.000
7388 N 39.121 47.875 -17.090 n 516 NIL_516    0.000
7389 C_1293 40.948 48.170 -15.438 c3 516 NIL_516    0.000
7390 C_3668 44.472 48.219 -18.534 c3 516 NIL_516    0.000
7391 C_1295 38.793 47.300 -15.728 c3 516 NIL_516    0.000
7392 C_1294 39.662 47.934 -14.573 c3 516 NIL_516    0.000
7393 C_3656 45.264 46.808 -18.381 c2 516 NIL_516    0.000
7394 N 39.098 49.218 -14.098 n 516 NIL_516    0.000
7395 C_1306 39.942 47.026 -13.318 c 516 NIL_516    0.000
7396 C_3654 46.299 46.444 -19.159 c2 516 NIL_516    0.000
7397 C_3658 44.983 45.854 -17.478 c2 516 NIL_516    0.000
7398 C_3544 39.190 50.250 -15.127 c3 516 NIL_516    0.000
7399 O 40.629 46.031 -13.430 o 516 NIL_516    0.000
7400 C_3652 46.963 45.267 -19.064 c2 516 NIL_516    0.000
7401 C_3660 45.647 44.677 -17.376 c2 516 NIL_516    0.000
7402 C_3546 40.638 50.699 -15.361 c3 516 NIL_516    0.000
7403 C_3574 46.672 44.314 -18.164 c2 516 NIL_516    0.000
7404 C_3548 40.691 51.717 -16.507 c3 516 NIL_516    0.000
7405 C_2831 47.331 42.982 -18.090 c 516 NIL_516    0.000
7406 O 48.122 42.619 -18.937 o 516 NIL_516    0.000
7407 H_35481 40.110 52.605 -16.251 hc 516 NIL_516    0.000
7408 H_35482 40.278 51.280 -17.419 hc 516 NIL_516    0.000
7409 H_35483 41.722 52.016 -16.700 hc 516 NIL_516    0.000
7410 H_35461 41.222 49.938 -15.684 hc 516 NIL_516    0.000
7411 H_35462 41.039 51.143 -14.447 hc 516 NIL_516    0.000
7412 H_3660 45.314 43.978 -16.630 ha 516 NIL_516    0.000
7413 H_3652 47.771 45.077 -19.766 ha 516 NIL_516    0.000
7414 H_35441 38.590 51.110 -14.818 h1 516 NIL_516    0.000
7415 H_35442 38.778 49.851 -16.058 h1 516 NIL_516    0.000
7416 H_3658 44.161 46.034 -16.791 ha 516 NIL_516    0.000
7417 H_3654 46.619 47.142 -19.928 ha 516 NIL_516    0.000
7418 H_12951 39.008 46.234 -15.752 h1 516 NIL_516    0.000
7419 H_12952 37.730 47.448 -15.518 h1 516 NIL_516    0.000
7420 H_36681 45.151 49.020 -18.234 h1 516 NIL_516    0.000
7421 H_36682 44.244 48.365 -19.594 h1 516 NIL_516    0.000
7422 H_12931 41.572 47.280 -15.376 hc 516 NIL_516    0.000
7423 H_12932 41.567 48.907 -14.971 hc 516 NIL_516    0.000
7424 H_1292 40.525 49.496 -17.110 h1 516 NIL_516    0.000
7425 HH 43.229 49.084 -16.982 hn 516 NIL_516    0.000
7426 C_1343 38.304 47.738 11.869 c3 517 NIL_517    0.000
7427 NH 37.449 48.070 13.019 n 517 NIL_517    0.000
7428 C_1335 37.881 48.349 10.406 c3 517 NIL_517    0.000
7429 C_1323 38.056 47.604 8.950 c3 517 NIL_517    0.000
7430 C_1319 36.903 47.888 7.969 c 517 NIL_517    0.000
7431 NH 39.319 47.743 8.171 n 517 NIL_517    0.000
7432 O 35.789 48.087 8.408 o 517 NIL_517    0.000
7433 H_1323 37.959 46.534 9.150 h1 517 NIL_517    0.000
7434 H_13351 36.806 48.523 10.490 hc 517 NIL_517    0.000
7435 H_13352 38.319 49.347 10.325 hc 517 NIL_517    0.000
7436 H_13431 38.299 46.649 11.785 h1 517 NIL_517    0.000
7437 H_13432 39.328 48.045 12.099 h1 517 NIL_517    0.000
7438 HH 40.160 47.729 8.729 hn 517 NIL_517    0.000
7439 HH 36.810 48.847 12.943 hn 517 NIL_517    0.000
7440 N 38.090 38.994 -11.955 n 518 NIL_518    0.000
7441 C_2355 37.157 37.973 -11.644 c3 518 NIL_518    0.000
7442 C_2358 38.719 39.287 -10.544 c3 518 NIL_518    0.000
7443 C_2356 36.602 38.260 -10.202 c3 518 NIL_518    0.000
7444 C_2360 36.174 37.715 -12.778 c 518 NIL_518    0.000
7445 C_2357 37.698 39.022 -9.381 c3 518 NIL_518    0.000
7446 O 35.118 37.155 -12.568 o 518 NIL_518    0.000
7447 N 37.169 40.290 -8.829 n 518 NIL_518    0.000
7448 C_2369 38.261 38.164 -8.179 c 518 NIL_518    0.000
7449 O 39.006 37.232 -8.399 o 518 NIL_518    0.000
7450 H_23561 35.715 38.895 -10.273 hc 518 NIL_518    0.000
7451 H_23562 36.319 37.331 -9.702 hc 518 NIL_518    0.000
7452 H_23581 39.085 40.338 -10.472 h1 518 NIL_518    0.000
7453 H_23582 39.603 38.763 -10.475 h1 518 NIL_518    0.000
7454 H_2355 37.754 37.059 -11.583 h1 518 NIL_518    0.000
7455 O 45.076 44.573 15.385 o 519 NIL_519    0.000
7456 C_3865 45.704 44.938 16.307 c 519 NIL_519    0.000
7457 C_3861 44.990 45.635 17.447 c3 519 NIL_519    0.000
7458 N 45.849 46.588 18.120 n 519 NIL_519    0.000
7459 C_3862 43.708 46.403 17.053 c3 519 NIL_519    0.000
7460 C_3864 45.034 47.696 18.632 c3 519 NIL_519    0.000
7461 C_3863 43.654 47.682 17.927 c3 519 NIL_519    0.000
7462 N 43.544 48.880 17.083 n 519 NIL_519    0.000
7463 C_3869 42.540 47.601 18.969 c 519 NIL_519    0.000
7464 H 44.382 49.144 16.588 hn 519 NIL_519    0.000
7465 O 42.616 46.855 19.923 o 519 NIL_519    0.000
7466 H_38641 45.542 48.644 18.438 h1 519 NIL_519    0.000
7467 H_38642 44.900 47.571 19.710 h1 519 NIL_519    0.000
7468 H_38621 43.770 46.689 16.001 hc 519 NIL_519    0.000
7469 H_38622 42.818 45.785 17.194 hc 519 NIL_519    0.000
7470 H_3861 44.735 44.861 18.176 h1 519 NIL_519    0.000
7471 C_2376 38.591 37.696 9.084 c3 520 NIL_520    0.000
7472 C_2372 37.285 37.968 8.315 c 520 NIL_520    0.000
7473 NH 39.697 38.048 8.150 n 520 NIL_520    0.000
7474 C_2388 38.796 38.328 10.586 c3 520 NIL_520    0.000
7475 O 36.241 38.067 8.927 o 520 NIL_520    0.000
7476 C_2396 38.186 37.815 12.023 c3 520 NIL_520    0.000
7477 NH 38.995 36.934 12.882 n 520 NIL_520    0.000
7478 H_23961 37.984 38.707 12.620 h1 520 NIL_520    0.000
7479 H_23962 37.225 37.327 11.843 h1 520 NIL_520    0.000
7480 H_23881 38.491 39.373 10.497 hc 520 NIL_520    0.000
7481 H_23882 39.876 38.372 10.741 hc 520 NIL_520    0.000
7482 H_2376 38.629 36.608 9.188 h1 520 NIL_520    0.000
7483 HH 38.985 35.945 12.679 hn 520 NIL_520    0.000
7484 HH 40.604 38.090 8.591 hn 520 NIL_520    0.000
7485 N 38.364 47.560 2.893 n 521 NIL_521    0.000
7486 C_1312 38.184 48.806 3.408 c3 521 NIL_521    0.000
7487 C_1315 38.934 46.980 4.983 c3 521 NIL_521    0.000
7488 C_1313 38.573 49.100 4.913 c3 521 NIL_521    0.000
7489 C_1317 38.866 49.564 2.330 c 521 NIL_521    0.000
7490 C_1314 38.389 47.877 5.802 c3 521 NIL_521    0.000
7491 O 39.323 50.671 2.530 o 521 NIL_521    0.000
7492 N 37.079 47.911 6.599 n 521 NIL_521    0.000
7493 C_1320 39.499 47.702 6.799 c 521 NIL_521    0.000
7494 O 40.630 47.610 6.369 o 521 NIL_521    0.000
7495 H_13131 39.637 49.332 4.928 hc 521 NIL_521    0.000
7496 H_13132 38.032 49.962 5.310 hc 521 NIL_521    0.000
7497 H_13151 39.304 46.167 4.651 h1 521 NIL_521    0.000
7498 H_13152 36.746 45.315 5.223 h1 521 NIL_521    0.000
7499 H_1312 37.136 49.173 3.057 h1 521 NIL_521    0.000
7500 N 39.475 47.385 -12.060 n 522 NIL_522    0.000
7501 C_1302 38.452 48.375 -11.845 c3 522 NIL_522    0.000
7502 C_1305 39.720 46.764 -10.705 c3 522 NIL_522    0.000
7503 C_1303 38.433 48.751 -10.315 c3 522 NIL_522    0.000
7504 C_1307 38.547 49.494 -12.876 c 522 NIL_522    0.000
7505 C_1304 39.272 47.709 -9.498 c3 522 NIL_522    0.000
7506 O 38.147 50.613 -12.628 o 522 NIL_522    0.000
7507 N 40.444 48.388 -8.914 n 522 NIL_522    0.000
7508 C_1316 38.521 47.004 -8.305 c 522 NIL_522    0.000
7509 O 37.814 46.038 -8.507 o 522 NIL_522    0.000
7510 H_13031 38.870 49.743 -10.175 hc 522 NIL_522    0.000
7511 H_13032 37.404 48.782 -9.951 hc 522 NIL_522    0.000
7512 H_13051 40.555 46.623 -10.765 h1 522 NIL_522    0.000
7513 H_13052 39.151 45.834 -10.658 h1 522 NIL_522    0.000
7514 H_1302 37.503 47.878 -12.067 h1 522 NIL_522    0.000
7515 N 38.222 38.039 3.363 n 523 NIL_523    0.000
7516 C_2365 37.653 39.299 3.762 c3 523 NIL_523    0.000
7517 C_2368 38.464 37.311 4.679 c3 523 NIL_523    0.000
7518 C_2366 38.248 39.619 5.177 c3 523 NIL_523    0.000
7519 C_2370 37.780 40.361 2.684 c 523 NIL_523    0.000
7520 C_2367 38.391 38.275 5.962 c3 523 NIL_523    0.000
7521 O 37.733 41.541 2.965 o 523 NIL_523    0.000
7522 N 37.264 38.092 6.934 n 523 NIL_523    0.000
7523 C_2373 39.687 38.262 6.787 c 523 NIL_523    0.000
7524 O 40.744 38.472 6.227 o 523 NIL_523    0.000
7525 H_23661 39.232 40.069 5.052 hc 523 NIL_523    0.000
7526 H_23662 37.741 40.347 5.765 hc 523 NIL_523    0.000
7527 H_23681 39.451 36.846 4.636 h1 523 NIL_523    0.000
7528 H_23682 37.718 36.519 4.784 h1 523 NIL_523    0.000
7529 H_2365 36.579 39.127 3.877 h1 523 NIL_523    0.000
7530 C_3514 48.830 41.286 4.541 c3 524 NIL_524    0.000
7531 C_3013 48.608 42.998 4.248 c3 524 NIL_524    0.000
7532 C_3012 48.885 43.463 5.571 c3 524 NIL_524    0.000
7533 H_30121 49.868 43.122 5.906 h1 524 NIL_524    0.000
7534 H_30122 48.880 44.556 5.541 h1 524 NIL_524    0.000
7535 H_30131 49.406 43.210 3.485 hc 524 NIL_524    0.000
7536 H_30132 47.684 43.334 3.790 hc 524 NIL_524    0.000
7537 H_35141 49.444 40.945 4.581 hc 524 NIL_524    0.000
7538 H_35142 48.718 40.749 3.198 hc 524 NIL_524    0.000
7539 H_35143 48.285 41.428 4.302 hc 524 NIL_524    0.000
7540 C_1415 38.369 46.799 -5.656 c3 525 NIL_525    0.000
7541 C_1414 38.725 47.740 -4.413 c3 525 NIL_525    0.000
7542 N 38.796 47.419 -6.983 n 525 NIL_525    0.000
7543 C_1413 39.796 48.594 -5.159 c3 525 NIL_525    0.000
7544 N 37.574 48.581 -3.985 n 525 NIL_525    0.000
7545 C_1426 39.374 47.100 -3.127 c 525 NIL_525    0.000
7546 C_1412 39.418 48.665 -6.676 c3 525 NIL_525    0.000
7547 O 40.433 46.510 -3.209 o 525 NIL_525    0.000
7548 C_1417 40.567 48.884 -7.649 c 525 NIL_525    0.000
7549 O 41.589 49.441 -7.305 o 525 NIL_525    0.000
7550 H_1412 38.718 49.487 -6.835 h1 525 NIL_525    0.000
7551 H_14131 40.759 48.086 -5.078 hc 525 NIL_525    0.000
7552 H_14132 39.898 49.585 -4.714 hc 525 NIL_525    0.000
7553 H_14151 38.949 45.880 -5.577 h1 525 NIL_525    0.000
7554 H_14152 37.521 46.417 -5.539 h1 525 NIL_525    0.000
7555 C_2285 39.814 36.265 15.088 c3 526 NIL_526    0.000
7556 C_766 39.438 37.352 14.094 c 526 NIL_526    0.000
7557 O 39.467 38.530 14.381 o 526 NIL_526    0.000
7558 H_22851 38.895 35.751 15.378 h1 526 NIL_526    0.000
7559 H_22852 40.463 35.558 14.562 h1 526 NIL_526    0.000
7560 N 38.797 47.284 -1.877 n 527 NIL_527    0.000
7561 C_1422 37.408 47.617 -1.694 c3 527 NIL_527    0.000
7562 C_1425 39.338 47.015 -0.490 c3 527 NIL_527    0.000
7563 C_1423 37.161 47.966 -0.174 c3 527 NIL_527    0.000
7564 C_1427 36.954 48.602 -2.765 c 527 NIL_527    0.000
7565 C_1424 38.454 47.680 0.664 c3 527 NIL_527    0.000
7566 O 36.068 49.405 -2.550 o 527 NIL_527    0.000
7567 C_1428 38.283 46.801 1.933 c 527 NIL_527    0.000
7568 N 39.018 48.971 1.108 n 527 NIL_527    0.000
7569 O 38.170 45.585 1.856 o 527 NIL_527    0.000
7570 H_14231 36.888 49.020 -0.078 hc 527 NIL_527    0.000
7571 H_14232 36.329 47.370 0.209 hc 527 NIL_527    0.000
7572 H_14251 40.366 47.379 -0.425 h1 527 NIL_527    0.000
7573 H_14252 39.341 45.932 -0.343 h1 527 NIL_527    0.000
7574 H_1422 36.850 46.703 -1.908 h1 527 NIL_527    0.000
7575 C_188 38.827 32.217 18.545 c3 528 NIL_528    0.000
7576 C_112 37.932 33.015 17.586 c3 528 NIL_528    0.000
7577 H_1121 37.960 32.563 16.591 h1 528 NIL_528    0.000
7578 H_1122 36.898 33.003 17.945 h1 528 NIL_528    0.000
7579 H_1881 38.455 31.196 18.654 hc 528 NIL_528    0.000
7580 H_1882 38.815 32.686 19.530 hc 528 NIL_528    0.000
7581 H_1883 39.862 32.180 18.190 hc 528 NIL_528    0.000
7582 N 46.392 39.396 18.984 n 529 NIL_529    0.000
7583 C_133 47.256 39.319 17.819 c3 529 NIL_529    0.000
7584 C_136 47.112 40.104 20.060 c3 529 NIL_529    0.000
7585 C_134 48.697 39.546 18.318 c3 529 NIL_529    0.000
7586 C_138 47.064 38.038 17.048 c 529 NIL_529    0.000
7587 C.fc 48.561 40.414 19.586 c3 529 NIL_529    0.000
7588 O 47.939 37.573 16.346 o 529 NIL_529    0.000
7589 NH 48.739 41.851 19.311 n 529 NIL_529    0.000
7590 H.fc 49.287 40.108 20.343 h1 529 NIL_529    0.000
7591 H_1341 49.315 40.031 17.562 hc 529 NIL_529    0.000
7592 H_1342 49.145 38.586 18.582 hc 529 NIL_529    0.000
7593 H_1361 47.142 39.455 20.940 h1 529 NIL_529    0.000
7594 H_1362 46.586 41.029 20.306 h1 529 NIL_529    0.000
7595 H_133 46.978 40.136 17.148 h1 529 NIL_529    0.000
7596 HH 47.909 42.317 18.977 hn 529 NIL_529    0.000
7597 C_737 35.975 39.202 19.716 c3 530 NIL_530    0.000
7598 C.fb 35.626 37.789 19.169 c3 530 NIL_530    0.000
7599 N 35.836 40.193 18.630 n 530 NIL_530    0.000
7600 C_735 34.981 38.115 17.806 c3 530 NIL_530    0.000
7601 NH 36.819 36.931 19.043 n 530 NIL_530    0.000
7602 C_734 35.556 39.486 17.396 c3 530 NIL_530    0.000
7603 C_739 34.672 40.274 16.462 c 530 NIL_530    0.000
7604 O 33.998 39.734 15.608 o 530 NIL_530    0.000
7605 H_734 36.510 39.338 16.880 h1 530 NIL_530    0.000
7606 H_7351 35.180 37.345 17.057 hc 530 NIL_530    0.000
7607 H_7352 33.899 38.206 17.936 hc 530 NIL_530    0.000
7608 H.fb 34.904 37.292 19.821 h1 530 NIL_530    0.000
7609 H_7371 35.280 39.466 20.516 h1 530 NIL_530    0.000
7610 H_7372 36.998 39.217 20.100 h1 530 NIL_530    0.000
7611 HH 37.651 37.408 18.732 hn 530 NIL_530    0.000
7612 C_2526 35.500 38.100 -4.857 c3 531 NIL_531    0.000
7613 C_2527 35.177 39.542 -5.312 c3 531 NIL_531    0.000
7614 C_3504 34.234 39.513 -6.531 c3 531 NIL_531    0.000
7615 H_35041 34.052 40.532 -6.881 hc 531 NIL_531    0.000
7616 H_35042 33.283 39.068 -6.239 hc 531 NIL_531    0.000
7617 H_35043 34.656 38.931 -7.354 hc 531 NIL_531    0.000
7618 H_25271 36.024 40.064 -5.598 hc 531 NIL_531    0.000
7619 H_25272 34.786 40.117 -4.529 hc 531 NIL_531    0.000
7620 H_25261 34.581 37.648 -4.480 h1 531 NIL_531    0.000
7621 H_25262 35.872 37.501 -5.695 h1 531 NIL_531    0.000
7622 C_2858 46.985 42.879 8.929 c3 532 NIL_532    0.000
7623 C_2854 48.003 43.335 7.866 c 532 NIL_532    0.000
7624 NH 46.163 41.813 8.291 n 532 NIL_532    0.000
7625 C_2870 47.650 42.666 10.421 c3 532 NIL_532    0.000
7626 O 48.955 44.005 8.210 o 532 NIL_532    0.000
7627 C_2878 46.894 42.842 11.868 c3 532 NIL_532    0.000
7628 NH 47.671 43.332 13.022 n 532 NIL_532    0.000
7629 H_28781 46.080 43.558 11.720 h1 532 NIL_532    0.000
7630 H_28782 46.438 41.888 12.143 h1 532 NIL_532    0.000
7631 H_28701 48.460 43.397 10.455 hc 532 NIL_532    0.000
7632 H_28702 48.146 41.694 10.425 hc 532 NIL_532    0.000
7633 H_2858 46.317 43.739 9.021 h1 532 NIL_532    0.000
7634 HH 48.677 43.250 13.010 hn 532 NIL_532    0.000
7635 HH 45.554 41.320 8.926 hn 532 NIL_532    0.000
7636 C_1478 39.705 49.649 0.014 c3 533 NIL_533    0.000
7637 C_1479 38.712 50.230 -1.005 c3 533 NIL_533    0.000
7638 C_3530 37.826 51.290 -0.336 c3 533 NIL_533    0.000
7639 H_35301 37.261 50.846 0.487 hc 533 NIL_533    0.000
7640 H_35302 37.121 51.705 -1.059 hc 533 NIL_533    0.000
7641 H_35303 38.444 52.100 0.057 hc 533 NIL_533    0.000
7642 H_14791 38.087 49.433 -1.409 hc 533 NIL_533    0.000
7643 H_14792 39.258 50.679 -1.836 hc 533 NIL_533    0.000
7644 H_14781 40.351 48.926 -0.486 h1 533 NIL_533    0.000
7645 H_14782 40.322 50.451 0.425 h1 533 NIL_533    0.000
7646 C_3010 47.136 39.302 0.349 c3 534 NIL_534    0.000
7647 C_3011 48.277 39.352 -0.679 c3 534 NIL_534    0.000
7648 C_3516 49.634 39.231 0.028 c3 534 NIL_534    0.000
7649 H_35161 49.768 40.052 0.736 hc 534 NIL_534    0.000
7650 H_35162 50.445 39.267 -0.702 hc 534 NIL_534    0.000
7651 H_35163 49.694 38.287 0.574 hc 534 NIL_534    0.000
7652 H_30111 48.234 40.289 -1.237 hc 534 NIL_534    0.000
7653 H_30112 48.162 38.533 -1.392 hc 534 NIL_534    0.000
7654 H_30101 46.176 39.343 -0.166 h1 534 NIL_534    0.000
7655 H_30102 47.197 38.360 0.900 h1 534 NIL_534    0.000
7656 C_1477 36.068 48.970 -5.933 c3 535 NIL_535    0.000
7657 C_1476 37.172 49.529 -5.024 c3 535 NIL_535    0.000
7658 C_3532 36.513 47.677 -6.628 c3 535 NIL_535    0.000
7659 H_35321 37.357 47.858 -7.205 hc 535 NIL_535    0.000
7660 H_35322 35.727 47.316 -7.293 hc 535 NIL_535    0.000
7661 H_35323 36.491 47.035 -5.976 hc 535 NIL_535    0.000
7662 H_14761 38.044 49.780 -5.627 h1 535 NIL_535    0.000
7663 H_14762 36.803 50.440 -4.543 h1 535 NIL_535    0.000
7664 H_14771 35.806 49.720 -6.685 hc 535 NIL_535    0.000
7665 H_14772 35.181 48.763 -5.330 hc 535 NIL_535    0.000
7666 C_1472 42.130 46.970 -9.999 c3 536 NIL_536    0.000
7667 C_1471 41.567 48.389 -9.844 c3 536 NIL_536    0.000
7668 C_3542 43.175 46.918 -11.120 c3 536 NIL_536    0.000
7669 H_35421 43.526 45.893 -11.256 hc 536 NIL_536    0.000
7670 H_35422 44.030 47.552 -10.873 hc 536 NIL_536    0.000
7671 H_35423 42.742 47.267 -12.060 hc 536 NIL_536    0.000
7672 H_14711 42.344 49.061 -9.473 h1 536 NIL_536    0.000
7673 H_14712 41.214 48.750 -10.813 h1 536 NIL_536    0.000
7674 H_14721 41.535 46.184 -10.082 hc 536 NIL_536    0.000
7675 H_14722 42.569 46.641 -9.058 hc 536 NIL_536    0.000
7676 C_660 51.540 44.905 17.915 c3 537 NIL_537    0.000
7677 C_662 51.620 46.119 18.853 c3 537 NIL_537    0.000
7678 H_6621 51.035 46.949 18.452 hc 537 NIL_537    0.000
7679 H_6622 52.652 46.455 18.958 hc 537 NIL_537    0.000
7680 H_6623 51.235 45.860 19.840 hc 537 NIL_537    0.000
7681 H_6601 51.964 45.173 16.943 h1 537 NIL_537    0.000
7682 H_6602 52.116 44.073 18.332 h1 537 NIL_537    0.000
7683 C_3009 48.962 42.831 -5.971 c3 538 NIL_538    0.000
7684 C_3008 48.935 41.651 -4.990 c3 538 NIL_538    0.000
7685 C_3518 47.617 43.034 -6.623 c3 538 NIL_538    0.000
7686 H_35181 47.277 42.813 -6.444 hc 538 NIL_538    0.000
7687 H_35182 47.609 42.181 -7.237 hc 538 NIL_538    0.000
7688 H_35183 47.594 43.853 -7.315 hc 538 NIL_538    0.000
7689 H_30081 48.674 40.734 -5.519 h1 538 NIL_538    0.000
7690 H_30082 49.924 41.524 -4.541 h1 538 NIL_538    0.000
7691 H_30091 49.709 42.649 -6.747 hc 538 NIL_538    0.000
7692 H_30092 49.242 43.744 -5.442 hc 538 NIL_538    0.000
7693 C_2299 36.618 47.786 15.307 c3 539 NIL_539    0.000
7694 C_309 37.522 47.357 14.169 c 539 NIL_539    0.000
7695 O 38.294 46.439 14.253 o 539 NIL_539    0.000
7696 H_22991 36.985 48.680 15.584 h1 539 NIL_539    0.000
7697 H_22992 35.628 47.905 14.883 h1 539 NIL_539    0.000
7698 C_769 36.521 49.915 16.534 c3 540 NIL_540    0.000
7699 C_770 36.014 50.022 15.079 c3 540 NIL_540    0.000
7700 H_7701 35.549 49.137 14.759 hc 540 NIL_540    0.000
7701 H_7702 36.844 50.240 14.403 hc 540 NIL_540    0.000
7702 H_7703 35.275 50.816 15.002 hc 540 NIL_540    0.000
7703 H_7691 37.263 49.114 16.696 h1 540 NIL_540    0.000
7704 H_7692 37.035 50.825 16.814 h1 540 NIL_540    0.000
7705 OH2 5.433 22.062 24.589 oh 541 TIP3_541   -0.834
7706 H1 5.349 22.479 25.504 ho 541 TIP3_541    0.417
7707 H2 5.494 22.850 24.044 ho 541 TIP3_541    0.417
7708 OH2 13.647 11.816 34.705 oh 542 TIP3_542   -0.834
7709 H1 14.199 11.093 34.411 ho 542 TIP3_542    0.417
7710 H2 12.955 11.462 35.226 ho 542 TIP3_542    0.417
7711 OH2 6.210 7.340 36.321 oh 543 TIP3_543   -0.834
7712 H1 6.732 6.533 35.960 ho 543 TIP3_543    0.417
7713 H2 6.181 7.865 35.519 ho 543 TIP3_543    0.417
7714 OH2 11.760 0.257 25.668 oh 544 TIP3_544   -0.834
7715 H1 11.233 0.256 24.816 ho 544 TIP3_544    0.417
7716 H2 11.798 1.209 25.809 ho 544 TIP3_544    0.417
7717 OH2 13.347 15.840 38.433 oh 545 TIP3_545   -0.834
7718 H1 13.356 15.008 38.976 ho 545 TIP3_545    0.417
7719 H2 13.465 15.556 37.497 ho 545 TIP3_545    0.417
7720 OH2 21.615 2.150 36.657 oh 546 TIP3_546   -0.834
7721 H1 21.567 2.363 35.742 ho 546 TIP3_546    0.417
7722 H2 20.836 1.577 36.781 ho 546 TIP3_546    0.417
7723 OH2 13.058 16.540 21.178 oh 547 TIP3_547   -0.834
7724 H1 12.899 16.329 22.076 ho 547 TIP3_547    0.417
7725 H2 12.180 16.949 21.006 ho 547 TIP3_547    0.417
7726 OH2 19.699 8.713 27.184 oh 548 TIP3_548   -0.834
7727 H1 19.313 9.559 27.480 ho 548 TIP3_548    0.417
7728 H2 20.642 8.901 27.059 ho 548 TIP3_548    0.417
7729 OH2 16.172 11.099 36.684 oh 549 TIP3_549   -0.834
7730 H1 15.627 10.291 36.490 ho 549 TIP3_549    0.417
7731 H2 15.540 11.640 37.183 ho 549 TIP3_549    0.417
7732 OH2 10.022 10.199 38.518 oh 550 TIP3_550   -0.834
7733 H1 9.280 9.568 38.312 ho 550 TIP3_550    0.417
7734 H2 10.067 10.282 39.516 ho 550 TIP3_550    0.417
7735 OH2 4.449 7.516 26.865 oh 551 TIP3_551   -0.834
7736 H1 3.981 6.946 27.502 ho 551 TIP3_551    0.417
7737 H2 4.079 7.287 26.057 ho 551 TIP3_551    0.417
7738 OH2 15.378 9.000 34.822 oh 552 TIP3_552   -0.834
7739 H1 15.207 9.030 33.861 ho 552 TIP3_552    0.417
7740 H2 16.325 9.201 34.822 ho 552 TIP3_552    0.417
7741 OH2 16.530 17.366 36.458 oh 553 TIP3_553   -0.834
7742 H1 16.102 18.097 37.032 ho 553 TIP3_553    0.417
7743 H2 15.761 16.978 36.047 ho 553 TIP3_553    0.417
7744 OH2 7.564 17.521 27.579 oh 554 TIP3_554   -0.834
7745 H1 8.279 17.363 26.942 ho 554 TIP3_554    0.417
7746 H2 7.003 18.169 27.017 ho 554 TIP3_554    0.417
7747 OH2 13.205 17.214 32.160 oh 555 TIP3_555   -0.834
7748 H1 13.121 18.046 32.630 ho 555 TIP3_555    0.417
7749 H2 13.395 17.460 31.219 ho 555 TIP3_555    0.417
7750 OH2 12.592 11.290 22.468 oh 556 TIP3_556   -0.834
7751 H1 13.408 10.981 22.868 ho 556 TIP3_556    0.417
7752 H2 12.959 11.917 21.834 ho 556 TIP3_556    0.417
7753 OH2 20.067 22.175 22.651 oh 557 TIP3_557   -0.834
7754 H1 19.634 22.100 21.822 ho 557 TIP3_557    0.417
7755 H2 19.377 22.073 23.367 ho 557 TIP3_557    0.417
7756 OH2 14.491 17.683 24.230 oh 558 TIP3_558   -0.834
7757 H1 14.071 18.533 24.298 ho 558 TIP3_558    0.417
7758 H2 13.766 17.024 24.133 ho 558 TIP3_558    0.417
7759 OH2 4.295 21.070 32.951 oh 559 TIP3_559   -0.834
7760 H1 5.056 21.614 32.855 ho 559 TIP3_559    0.417
7761 H2 4.463 20.423 32.264 ho 559 TIP3_559    0.417
7762 OH2 19.120 6.803 25.292 oh 560 TIP3_560   -0.834
7763 H1 19.680 7.143 26.053 ho 560 TIP3_560    0.417
7764 H2 19.569 6.074 24.988 ho 560 TIP3_560    0.417
7765 OH2 15.671 22.998 30.498 oh 561 TIP3_561   -0.834
7766 H1 16.489 22.532 30.222 ho 561 TIP3_561    0.417
7767 H2 15.442 23.662 29.800 ho 561 TIP3_561    0.417
7768 OH2 19.550 -0.128 32.115 oh 562 TIP3_562   -0.834
7769 H1 18.572 -0.321 32.023 ho 562 TIP3_562    0.417
7770 H2 19.653 0.722 31.681 ho 562 TIP3_562    0.417
7771 OH2 21.313 8.913 38.893 oh 563 TIP3_563   -0.834
7772 H1 22.105 9.215 38.376 ho 563 TIP3_563    0.417
7773 H2 20.754 8.305 38.345 ho 563 TIP3_563    0.417
7774 OH2 6.881 16.629 31.820 oh 564 TIP3_564   -0.834
7775 H1 6.619 15.769 32.121 ho 564 TIP3_564    0.417
7776 H2 7.756 16.736 32.236 ho 564 TIP3_564    0.417
7777 OH2 0.944 8.478 38.927 oh 565 TIP3_565   -0.834
7778 H1 0.621 8.604 39.851 ho 565 TIP3_565    0.417
7779 H2 0.947 7.461 38.893 ho 565 TIP3_565    0.417
7780 OH2 21.343 13.026 27.128 oh 566 TIP3_566   -0.834
7781 H1 21.102 13.919 26.830 ho 566 TIP3_566    0.417
7782 H2 20.968 13.014 28.038 ho 566 TIP3_566    0.417
7783 OH2 19.879 19.214 29.259 oh 567 TIP3_567   -0.834
7784 H1 19.445 18.385 29.561 ho 567 TIP3_567    0.417
7785 H2 20.728 19.071 29.698 ho 567 TIP3_567    0.417
7786 OH2 21.844 2.163 28.738 oh 568 TIP3_568   -0.834
7787 H1 21.238 2.308 27.978 ho 568 TIP3_568    0.417
7788 H2 21.242 2.343 29.473 ho 568 TIP3_568    0.417
7789 OH2 23.645 4.083 25.619 oh 569 TIP3_569   -0.834
7790 H1 24.092 3.333 25.205 ho 569 TIP3_569    0.417
7791 H2 24.193 4.224 26.370 ho 569 TIP3_569    0.417
7792 OH2 7.086 11.644 36.458 oh 570 TIP3_570   -0.834
7793 H1 6.700 10.888 36.999 ho 570 TIP3_570    0.417
7794 H2 6.393 11.767 35.758 ho 570 TIP3_570    0.417
7795 OH2 10.922 3.590 30.121 oh 571 TIP3_571   -0.834
7796 H1 10.174 3.530 29.505 ho 571 TIP3_571    0.417
7797 H2 11.526 4.316 29.766 ho 571 TIP3_571    0.417
7798 OH2 8.717 4.411 32.470 oh 572 TIP3_572   -0.834
7799 H1 8.171 4.886 31.822 ho 572 TIP3_572    0.417
7800 H2 9.515 4.289 31.934 ho 572 TIP3_572    0.417
7801 OH2 12.473 12.934 25.357 oh 573 TIP3_573   -0.834
7802 H1 11.763 12.284 25.303 ho 573 TIP3_573    0.417
7803 H2 12.684 13.089 26.295 ho 573 TIP3_573    0.417
7804 OH2 7.942 21.270 38.682 oh 574 TIP3_574   -0.834
7805 H1 7.565 21.967 39.192 ho 574 TIP3_574    0.417
7806 H2 8.916 21.362 38.918 ho 574 TIP3_574    0.417
7807 OH2 11.528 5.978 25.692 oh 575 TIP3_575   -0.834
7808 H1 11.655 6.907 25.823 ho 575 TIP3_575    0.417
7809 H2 12.409 5.582 25.952 ho 575 TIP3_575    0.417
7810 OH2 9.706 8.591 26.966 oh 576 TIP3_576   -0.834
7811 H1 10.001 8.098 27.769 ho 576 TIP3_576    0.417
7812 H2 8.797 8.825 27.213 ho 576 TIP3_576    0.417
7813 OH2 10.399 13.905 36.931 oh 577 TIP3_577   -0.834
7814 H1 10.834 13.074 36.697 ho 577 TIP3_577    0.417
7815 H2 10.700 14.072 37.844 ho 577 TIP3_577    0.417
7816 OH2 1.456 23.922 22.163 oh 578 TIP3_578   -0.834
7817 H1 1.412 23.048 21.713 ho 578 TIP3_578    0.417
7818 H2 1.590 24.588 21.487 ho 578 TIP3_578    0.417
7819 OH2 20.520 20.497 25.640 oh 579 TIP3_579   -0.834
7820 H1 20.831 19.578 25.913 ho 579 TIP3_579    0.417
7821 H2 19.675 20.373 25.209 ho 579 TIP3_579    0.417
7822 OH2 3.719 5.906 36.940 oh 580 TIP3_580   -0.834
7823 H1 3.395 6.187 37.831 ho 580 TIP3_580    0.417
7824 H2 4.590 6.280 36.794 ho 580 TIP3_580    0.417
7825 OH2 6.046 8.069 30.573 oh 581 TIP3_581   -0.834
7826 H1 6.689 8.175 31.363 ho 581 TIP3_581    0.417
7827 H2 5.211 8.605 30.733 ho 581 TIP3_581    0.417
7828 OH2 15.015 10.057 22.936 oh 582 TIP3_582   -0.834
7829 H1 15.071 9.130 23.192 ho 582 TIP3_582    0.417
7830 H2 15.370 10.037 22.074 ho 582 TIP3_582    0.417
7831 OH2 18.833 12.117 37.063 oh 583 TIP3_583   -0.834
7832 H1 18.528 12.908 36.618 ho 583 TIP3_583    0.417
7833 H2 18.049 11.588 37.021 ho 583 TIP3_583    0.417
7834 OH2 10.370 6.305 34.451 oh 584 TIP3_584   -0.834
7835 H1 10.419 5.340 34.329 ho 584 TIP3_584    0.417
7836 H2 9.481 6.418 34.791 ho 584 TIP3_584    0.417
7837 OH2 5.757 17.147 23.200 oh 585 TIP3_585   -0.834
7838 H1 5.766 16.217 23.509 ho 585 TIP3_585    0.417
7839 H2 4.931 17.272 22.716 ho 585 TIP3_585    0.417
7840 OH2 23.184 0.754 21.450 oh 586 TIP3_586   -0.834
7841 H1 24.068 0.886 21.195 ho 586 TIP3_586    0.417
7842 H2 22.877 -0.022 21.026 ho 586 TIP3_586    0.417
7843 OH2 6.616 14.099 33.088 oh 587 TIP3_587   -0.834
7844 H1 5.929 13.497 33.341 ho 587 TIP3_587    0.417
7845 H2 6.948 14.297 33.984 ho 587 TIP3_587    0.417
7846 OH2 19.163 2.934 30.175 oh 588 TIP3_588   -0.834
7847 H1 18.497 2.575 29.496 ho 588 TIP3_588    0.417
7848 H2 19.067 3.927 30.184 ho 588 TIP3_588    0.417
7849 OH2 9.044 7.017 24.002 oh 589 TIP3_589   -0.834
7850 H1 8.117 7.316 23.934 ho 589 TIP3_589    0.417
7851 H2 9.223 7.235 24.897 ho 589 TIP3_589    0.417
7852 OH2 5.253 23.800 36.241 oh 590 TIP3_590   -0.834
7853 H1 4.302 23.617 36.426 ho 590 TIP3_590    0.417
7854 H2 5.546 24.181 37.090 ho 590 TIP3_590    0.417
7855 OH2 -0.300 8.170 36.164 oh 591 TIP3_591   -0.834
7856 H1 0.184 7.434 35.788 ho 591 TIP3_591    0.417
7857 H2 0.355 8.588 36.761 ho 591 TIP3_591    0.417
7858 OH2 5.424 19.378 31.245 oh 592 TIP3_592   -0.834
7859 H1 6.172 18.864 31.635 ho 592 TIP3_592    0.417
7860 H2 5.534 19.242 30.262 ho 592 TIP3_592    0.417
7861 OH2 15.355 3.996 24.044 oh 593 TIP3_593   -0.834
7862 H1 15.570 3.083 23.857 ho 593 TIP3_593    0.417
7863 H2 14.493 4.079 23.517 ho 593 TIP3_593    0.417
7864 OH2 15.496 3.118 31.023 oh 594 TIP3_594   -0.834
7865 H1 15.856 2.526 30.302 ho 594 TIP3_594    0.417
7866 H2 16.304 3.314 31.567 ho 594 TIP3_594    0.417
7867 OH2 14.270 0.575 27.976 oh 595 TIP3_595   -0.834
7868 H1 13.738 -0.145 27.634 ho 595 TIP3_595    0.417
7869 H2 13.629 1.323 27.804 ho 595 TIP3_595    0.417
7870 OH2 0.857 4.295 37.300 oh 596 TIP3_596   -0.834
7871 H1 0.568 4.647 36.436 ho 596 TIP3_596    0.417
7872 H2 1.103 3.399 37.092 ho 596 TIP3_596    0.417
7873 OH2 4.927 5.188 21.333 oh 597 TIP3_597   -0.834
7874 H1 5.627 5.899 21.261 ho 597 TIP3_597    0.417
7875 H2 5.423 4.418 21.452 ho 597 TIP3_597    0.417
7876 OH2 15.094 7.591 24.333 oh 598 TIP3_598   -0.834
7877 H1 15.927 8.094 24.583 ho 598 TIP3_598    0.417
7878 H2 15.253 6.707 24.522 ho 598 TIP3_598    0.417
7879 OH2 22.445 17.583 29.995 oh 599 TIP3_599   -0.834
7880 H1 22.813 18.215 30.616 ho 599 TIP3_599    0.417
7881 H2 23.029 17.605 29.238 ho 599 TIP3_599    0.417
7882 OH2 19.064 23.303 32.247 oh 600 TIP3_600   -0.834
7883 H1 19.795 23.065 32.839 ho 600 TIP3_600    0.417
7884 H2 19.419 24.175 31.917 ho 600 TIP3_600    0.417
7885 OH2 13.207 7.168 36.128 oh 601 TIP3_601   -0.834
7886 H1 13.067 7.816 36.890 ho 601 TIP3_601    0.417
7887 H2 12.394 6.692 36.201 ho 601 TIP3_601    0.417
7888 OH2 20.360 15.962 30.526 oh 602 TIP3_602   -0.834
7889 H1 19.803 16.187 31.315 ho 602 TIP3_602    0.417
7890 H2 20.928 16.766 30.498 ho 602 TIP3_602    0.417
7891 OH2 20.282 2.297 26.293 oh 603 TIP3_603   -0.834
7892 H1 20.889 2.442 25.481 ho 603 TIP3_603    0.417
7893 H2 19.429 2.639 26.009 ho 603 TIP3_603    0.417
7894 OH2 12.274 11.637 32.134 oh 604 TIP3_604   -0.834
7895 H1 11.350 12.009 32.220 ho 604 TIP3_604    0.417
7896 H2 12.787 12.175 32.727 ho 604 TIP3_604    0.417
7897 OH2 0.540 5.998 28.752 oh 605 TIP3_605   -0.834
7898 H1 0.672 6.950 28.942 ho 605 TIP3_605    0.417
7899 H2 1.411 5.658 28.959 ho 605 TIP3_605    0.417
7900 OH2 7.093 13.549 26.260 oh 606 TIP3_606   -0.834
7901 H1 7.906 13.958 26.580 ho 606 TIP3_606    0.417
7902 H2 6.546 13.598 27.059 ho 606 TIP3_606    0.417
7903 OH2 22.684 1.663 32.074 oh 607 TIP3_607   -0.834
7904 H1 23.100 0.773 32.116 ho 607 TIP3_607    0.417
7905 H2 22.102 1.541 31.327 ho 607 TIP3_607    0.417
7906 OH2 4.236 11.941 24.316 oh 608 TIP3_608   -0.834
7907 H1 3.473 11.988 23.857 ho 608 TIP3_608    0.417
7908 H2 4.506 12.873 24.396 ho 608 TIP3_608    0.417
7909 OH2 7.733 5.590 34.796 oh 609 TIP3_609   -0.834
7910 H1 7.538 5.142 33.983 ho 609 TIP3_609    0.417
7911 H2 8.111 4.846 35.323 ho 609 TIP3_609    0.417
7912 OH2 12.802 18.862 39.326 oh 610 TIP3_610   -0.834
7913 H1 13.545 19.201 38.842 ho 610 TIP3_610    0.417
7914 H2 12.794 17.888 39.080 ho 610 TIP3_610    0.417
7915 OH2 0.486 2.293 23.877 oh 611 TIP3_611   -0.834
7916 H1 -0.434 2.264 23.953 ho 611 TIP3_611    0.417
7917 H2 0.609 2.964 23.182 ho 611 TIP3_611    0.417
7918 OH2 12.291 2.648 27.267 oh 612 TIP3_612   -0.834
7919 H1 11.437 3.105 27.367 ho 612 TIP3_612    0.417
7920 H2 12.939 3.329 27.019 ho 612 TIP3_612    0.417
7921 OH2 22.105 4.211 34.124 oh 613 TIP3_613   -0.834
7922 H1 21.414 4.452 33.507 ho 613 TIP3_613    0.417
7923 H2 22.788 4.049 33.444 ho 613 TIP3_613    0.417
7924 OH2 6.011 14.529 23.880 oh 614 TIP3_614   -0.834
7925 H1 6.390 14.092 24.676 ho 614 TIP3_614    0.417
7926 H2 6.756 14.265 23.248 ho 614 TIP3_614    0.417
7927 OH2 22.937 21.469 21.854 oh 615 TIP3_615   -0.834
7928 H1 22.066 21.938 21.632 ho 615 TIP3_615    0.417
7929 H2 22.605 20.606 22.133 ho 615 TIP3_615    0.417
7930 OH2 7.704 5.573 26.612 oh 616 TIP3_616   -0.834
7931 H1 7.141 5.374 25.831 ho 616 TIP3_616    0.417
7932 H2 7.294 6.463 26.925 ho 616 TIP3_616    0.417
7933 OH2 6.906 9.524 34.289 oh 617 TIP3_617   -0.834
7934 H1 6.644 10.279 34.784 ho 617 TIP3_617    0.417
7935 H2 7.499 9.976 33.660 ho 617 TIP3_617    0.417
7936 OH2 15.954 15.770 25.310 oh 618 TIP3_618   -0.834
7937 H1 15.455 14.992 25.162 ho 618 TIP3_618    0.417
7938 H2 15.328 16.481 24.976 ho 618 TIP3_618    0.417
7939 OH2 18.674 13.248 24.166 oh 619 TIP3_619   -0.834
7940 H1 19.380 12.731 24.610 ho 619 TIP3_619    0.417
7941 H2 17.952 12.725 24.452 ho 619 TIP3_619    0.417
7942 OH2 13.949 4.719 26.344 oh 620 TIP3_620   -0.834
7943 H1 14.477 4.290 25.636 ho 620 TIP3_620    0.417
7944 H2 14.699 5.048 27.031 ho 620 TIP3_620    0.417
7945 OH2 17.928 3.077 32.448 oh 621 TIP3_621   -0.834
7946 H1 18.414 2.842 31.601 ho 621 TIP3_621    0.417
7947 H2 18.419 3.887 32.820 ho 621 TIP3_621    0.417
7948 OH2 4.835 10.598 31.781 oh 622 TIP3_622   -0.834
7949 H1 4.391 11.405 31.532 ho 622 TIP3_622    0.417
7950 H2 4.216 9.860 31.487 ho 622 TIP3_622    0.417
7951 OH2 4.377 0.747 25.106 oh 623 TIP3_623   -0.834
7952 H1 4.906 0.228 25.713 ho 623 TIP3_623    0.417
7953 H2 3.873 1.330 25.751 ho 623 TIP3_623    0.417
7954 OH2 11.114 3.527 34.890 oh 624 TIP3_624   -0.834
7955 H1 11.585 3.342 35.701 ho 624 TIP3_624    0.417
7956 H2 11.687 3.403 34.144 ho 624 TIP3_624    0.417
7957 OH2 20.823 13.116 30.134 oh 625 TIP3_625   -0.834
7958 H1 21.056 12.908 31.059 ho 625 TIP3_625    0.417
7959 H2 20.481 14.058 30.343 ho 625 TIP3_625    0.417
7960 OH2 14.036 9.614 27.420 oh 626 TIP3_626   -0.834
7961 H1 14.729 8.928 27.403 ho 626 TIP3_626    0.417
7962 H2 14.474 10.397 27.794 ho 626 TIP3_626    0.417
7963 OH2 17.834 13.641 30.790 oh 627 TIP3_627   -0.834
7964 H1 17.101 13.826 31.480 ho 627 TIP3_627    0.417
7965 H2 18.320 12.873 31.168 ho 627 TIP3_627    0.417
7966 OH2 1.745 20.204 23.102 oh 628 TIP3_628   -0.834
7967 H1 1.494 19.351 22.779 ho 628 TIP3_628    0.417
7968 H2 2.722 20.117 23.170 ho 628 TIP3_628    0.417
7969 OH2 7.066 8.024 27.973 oh 629 TIP3_629   -0.834
7970 H1 6.853 8.167 28.929 ho 629 TIP3_629    0.417
7971 H2 6.146 7.995 27.518 ho 629 TIP3_629    0.417
7972 OH2 5.575 11.188 39.816 oh 630 TIP3_630   -0.834
7973 H1 5.493 10.571 39.028 ho 630 TIP3_630    0.417
7974 H2 5.725 12.080 39.399 ho 630 TIP3_630    0.417
7975 OH2 11.981 8.776 25.375 oh 631 TIP3_631   -0.834
7976 H1 11.262 8.804 26.064 ho 631 TIP3_631    0.417
7977 H2 12.773 8.961 25.959 ho 631 TIP3_631    0.417
7978 OH2 7.723 13.488 38.884 oh 632 TIP3_632   -0.834
7979 H1 6.976 13.590 38.293 ho 632 TIP3_632    0.417
7980 H2 8.229 12.813 38.428 ho 632 TIP3_632    0.417
7981 OH2 14.838 20.375 35.252 oh 633 TIP3_633   -0.834
7982 H1 14.757 21.348 35.391 ho 633 TIP3_633    0.417
7983 H2 14.355 20.161 34.374 ho 633 TIP3_633    0.417
7984 OH2 0.815 5.983 34.676 oh 634 TIP3_634   -0.834
7985 H1 1.628 6.032 34.148 ho 634 TIP3_634    0.417
7986 H2 0.220 5.934 33.893 ho 634 TIP3_634    0.417
7987 OH2 0.347 18.388 38.390 oh 635 TIP3_635   -0.834
7988 H1 0.748 17.482 38.370 ho 635 TIP3_635    0.417
7989 H2 -0.561 18.130 38.309 ho 635 TIP3_635    0.417
7990 OH2 2.743 12.380 30.898 oh 636 TIP3_636   -0.834
7991 H1 3.278 13.222 31.039 ho 636 TIP3_636    0.417
7992 H2 2.645 12.266 29.926 ho 636 TIP3_636    0.417
7993 OH2 4.361 1.115 30.731 oh 637 TIP3_637   -0.834
7994 H1 5.188 0.555 30.863 ho 637 TIP3_637    0.417
7995 H2 4.590 1.982 31.196 ho 637 TIP3_637    0.417
7996 OH2 8.724 1.470 36.793 oh 638 TIP3_638   -0.834
7997 H1 8.880 0.569 36.444 ho 638 TIP3_638    0.417
7998 H2 8.190 1.279 37.588 ho 638 TIP3_638    0.417
7999 OH2 18.339 18.757 23.969 oh 639 TIP3_639   -0.834
8000 H1 17.671 18.995 24.616 ho 639 TIP3_639    0.417
8001 H2 18.364 17.821 24.106 ho 639 TIP3_639    0.417
8002 OH2 5.835 23.790 32.509 oh 640 TIP3_640   -0.834
8003 H1 6.636 23.409 32.901 ho 640 TIP3_640    0.417
8004 H2 5.900 24.728 32.691 ho 640 TIP3_640    0.417
8005 OH2 4.941 13.988 38.697 oh 641 TIP3_641   -0.834
8006 H1 4.993 14.950 38.524 ho 641 TIP3_641    0.417
8007 H2 3.990 13.865 38.946 ho 641 TIP3_641    0.417
8008 OH2 11.041 23.026 35.111 oh 642 TIP3_642   -0.834
8009 H1 10.136 23.005 35.424 ho 642 TIP3_642    0.417
8010 H2 11.079 22.205 34.579 ho 642 TIP3_642    0.417
8011 OH2 8.176 22.662 33.150 oh 643 TIP3_643   -0.834
8012 H1 8.297 21.759 32.756 ho 643 TIP3_643    0.417
8013 H2 8.051 22.485 34.112 ho 643 TIP3_643    0.417
8014 OH2 13.795 14.215 36.274 oh 644 TIP3_644   -0.834
8015 H1 14.201 14.840 35.683 ho 644 TIP3_644    0.417
8016 H2 13.593 13.469 35.684 ho 644 TIP3_644    0.417
8017 OH2 16.760 17.850 30.552 oh 645 TIP3_645   -0.834
8018 H1 17.478 17.552 30.026 ho 645 TIP3_645    0.417
8019 H2 16.212 18.274 29.907 ho 645 TIP3_645    0.417
8020 OH2 6.777 23.398 22.308 oh 646 TIP3_646   -0.834
8021 H1 7.002 23.722 21.477 ho 646 TIP3_646    0.417
8022 H2 5.910 23.840 22.547 ho 646 TIP3_646    0.417
8023 OH2 22.206 4.973 29.927 oh 647 TIP3_647   -0.834
8024 H1 21.785 5.445 29.191 ho 647 TIP3_647    0.417
8025 H2 22.644 4.219 29.497 ho 647 TIP3_647    0.417
8026 OH2 14.898 6.119 30.452 oh 648 TIP3_648   -0.834
8027 H1 14.980 5.186 30.163 ho 648 TIP3_648    0.417
8028 H2 15.301 6.228 31.316 ho 648 TIP3_648    0.417
8029 OH2 22.922 8.001 26.137 oh 649 TIP3_649   -0.834
8030 H1 23.131 8.376 26.990 ho 649 TIP3_649    0.417
8031 H2 22.930 8.789 25.573 ho 649 TIP3_649    0.417
8032 OH2 6.639 22.368 29.689 oh 650 TIP3_650   -0.834
8033 H1 5.833 22.558 29.150 ho 650 TIP3_650    0.417
8034 H2 6.483 22.829 30.510 ho 650 TIP3_650    0.417
8035 OH2 20.875 13.563 39.056 oh 651 TIP3_651   -0.834
8036 H1 20.679 12.788 38.416 ho 651 TIP3_651    0.417
8037 H2 21.596 14.089 38.608 ho 651 TIP3_651    0.417
8038 OH2 4.137 14.749 31.080 oh 652 TIP3_652   -0.834
8039 H1 4.763 14.811 30.404 ho 652 TIP3_652    0.417
8040 H2 3.836 15.624 31.144 ho 652 TIP3_652    0.417
8041 OH2 13.156 23.617 36.817 oh 653 TIP3_653   -0.834
8042 H1 12.440 23.281 36.257 ho 653 TIP3_653    0.417
8043 H2 13.981 23.495 36.313 ho 653 TIP3_653    0.417
8044 OH2 20.003 7.962 32.293 oh 654 TIP3_654   -0.834
8045 H1 20.421 8.736 31.827 ho 654 TIP3_654    0.417
8046 H2 20.383 7.992 33.118 ho 654 TIP3_654    0.417
8047 OH2 2.875 17.047 34.910 oh 655 TIP3_655   -0.834
8048 H1 3.119 17.208 33.965 ho 655 TIP3_655    0.417
8049 H2 2.899 17.968 35.246 ho 655 TIP3_655    0.417
8050 OH2 2.812 3.345 25.581 oh 656 TIP3_656   -0.834
8051 H1 2.514 3.912 26.283 ho 656 TIP3_656    0.417
8052 H2 2.060 3.370 24.960 ho 656 TIP3_656    0.417
8053 OH2 22.861 9.889 23.800 oh 657 TIP3_657   -0.834
8054 H1 23.010 9.108 23.163 ho 657 TIP3_657    0.417
8055 H2 23.535 10.565 23.549 ho 657 TIP3_657    0.417
8056 OH2 14.120 5.964 33.536 oh 658 TIP3_658   -0.834
8057 H1 14.066 6.439 34.433 ho 658 TIP3_658    0.417
8058 H2 13.534 6.537 33.024 ho 658 TIP3_658    0.417
8059 OH2 20.279 17.961 32.395 oh 659 TIP3_659   -0.834
8060 H1 19.941 17.441 33.165 ho 659 TIP3_659    0.417
8061 H2 20.115 18.912 32.768 ho 659 TIP3_659    0.417
8062 OH2 12.693 8.942 38.170 oh 660 TIP3_660   -0.834
8063 H1 13.336 9.171 38.914 ho 660 TIP3_660    0.417
8064 H2 11.961 9.518 38.365 ho 660 TIP3_660    0.417
8065 OH2 22.262 6.754 35.390 oh 661 TIP3_661   -0.834
8066 H1 22.651 6.562 36.241 ho 661 TIP3_661    0.417
8067 H2 22.228 5.938 35.004 ho 661 TIP3_661    0.417
8068 OH2 8.250 7.565 32.555 oh 662 TIP3_662   -0.834
8069 H1 8.340 6.623 32.772 ho 662 TIP3_662    0.417
8070 H2 7.707 7.922 33.231 ho 662 TIP3_662    0.417
8071 OH2 21.749 1.837 39.618 oh 663 TIP3_663   -0.834
8072 H1 20.874 2.095 39.278 ho 663 TIP3_663    0.417
8073 H2 22.348 2.146 38.880 ho 663 TIP3_663    0.417
8074 OH2 22.949 23.027 37.880 oh 664 TIP3_664   -0.834
8075 H1 22.852 23.176 38.851 ho 664 TIP3_664    0.417
8076 H2 23.493 22.197 37.801 ho 664 TIP3_664    0.417
8077 OH2 14.704 16.196 34.650 oh 665 TIP3_665   -0.834
8078 H1 14.199 16.560 33.922 ho 665 TIP3_665    0.417
8079 H2 15.590 16.138 34.242 ho 665 TIP3_665    0.417
8080 OH2 3.380 18.426 27.969 oh 666 TIP3_666   -0.834
8081 H1 4.354 18.651 28.095 ho 666 TIP3_666    0.417
8082 H2 2.986 19.181 28.265 ho 666 TIP3_666    0.417
8083 OH2 14.944 13.486 24.247 oh 667 TIP3_667   -0.834
8084 H1 15.422 13.025 24.933 ho 667 TIP3_667    0.417
8085 H2 14.061 13.071 24.374 ho 667 TIP3_667    0.417
8086 OH2 2.440 9.981 37.166 oh 668 TIP3_668   -0.834
8087 H1 1.738 10.624 36.844 ho 668 TIP3_668    0.417
8088 H2 2.067 9.537 37.925 ho 668 TIP3_668    0.417
8089 OH2 16.039 4.633 28.091 oh 669 TIP3_669   -0.834
8090 H1 15.909 3.804 28.578 ho 669 TIP3_669    0.417
8091 H2 16.994 4.671 28.148 ho 669 TIP3_669    0.417
8092 OH2 17.112 8.708 25.845 oh 670 TIP3_670   -0.834
8093 H1 16.846 8.341 26.726 ho 670 TIP3_670    0.417
8094 H2 17.980 8.264 25.640 ho 670 TIP3_670    0.417
8095 OH2 5.081 12.085 34.717 oh 671 TIP3_671   -0.834
8096 H1 4.579 12.884 35.048 ho 671 TIP3_671    0.417
8097 H2 4.330 11.618 34.309 ho 671 TIP3_671    0.417
8098 OH2 1.197 21.386 31.361 oh 672 TIP3_672   -0.834
8099 H1 0.492 22.034 31.490 ho 672 TIP3_672    0.417
8100 H2 1.215 20.989 32.247 ho 672 TIP3_672    0.417
8101 OH2 7.272 16.924 35.296 oh 673 TIP3_673   -0.834
8102 H1 7.627 16.061 35.381 ho 673 TIP3_673    0.417
8103 H2 8.078 17.505 35.374 ho 673 TIP3_673    0.417
8104 OH2 7.231 5.996 39.128 oh 674 TIP3_674   -0.834
8105 H1 6.331 6.344 39.299 ho 674 TIP3_674    0.417
8106 H2 7.051 5.275 38.476 ho 674 TIP3_674    0.417
8107 OH2 5.981 19.741 35.382 oh 675 TIP3_675   -0.834
8108 H1 5.047 19.760 35.192 ho 675 TIP3_675    0.417
8109 H2 6.309 18.986 34.875 ho 675 TIP3_675    0.417
8110 OH2 6.925 10.839 23.850 oh 676 TIP3_676   -0.834
8111 H1 7.642 11.457 24.159 ho 676 TIP3_676    0.417
8112 H2 6.259 11.487 23.740 ho 676 TIP3_676    0.417
8113 OH2 13.037 22.272 39.215 oh 677 TIP3_677   -0.834
8114 H1 12.108 21.888 39.238 ho 677 TIP3_677    0.417
8115 H2 13.059 22.624 38.296 ho 677 TIP3_677    0.417
8116 OH2 11.165 17.382 36.942 oh 678 TIP3_678   -0.834
8117 H1 11.779 18.006 36.535 ho 678 TIP3_678    0.417
8118 H2 11.612 16.537 37.055 ho 678 TIP3_678    0.417
8119 OH2 8.245 9.005 22.111 oh 679 TIP3_679   -0.834
8120 H1 7.752 9.370 22.831 ho 679 TIP3_679    0.417
8121 H2 9.152 9.214 22.417 ho 679 TIP3_679    0.417
8122 OH2 7.972 8.480 38.280 oh 680 TIP3_680   -0.834
8123 H1 7.983 7.627 38.765 ho 680 TIP3_680    0.417
8124 H2 7.533 8.298 37.426 ho 680 TIP3_680    0.417
8125 OH2 1.355 24.386 28.317 oh 681 TIP3_681   -0.834
8126 H1 1.494 24.666 27.366 ho 681 TIP3_681    0.417
8127 H2 1.166 23.474 28.226 ho 681 TIP3_681    0.417
8128 OH2 16.031 6.439 35.627 oh 682 TIP3_682   -0.834
8129 H1 15.481 7.201 35.298 ho 682 TIP3_682    0.417
8130 H2 16.584 6.851 36.333 ho 682 TIP3_682    0.417
8131 OH2 13.498 17.889 29.573 oh 683 TIP3_683   -0.834
8132 H1 14.100 18.610 29.665 ho 683 TIP3_683    0.417
8133 H2 13.718 17.463 28.719 ho 683 TIP3_683    0.417
8134 OH2 4.435 3.189 36.907 oh 684 TIP3_684   -0.834
8135 H1 4.147 4.086 36.855 ho 684 TIP3_684    0.417
8136 H2 4.190 2.885 37.807 ho 684 TIP3_684    0.417
8137 OH2 5.131 16.977 37.513 oh 685 TIP3_685   -0.834
8138 H1 5.894 17.420 37.955 ho 685 TIP3_685    0.417
8139 H2 5.411 16.861 36.627 ho 685 TIP3_685    0.417
8140 OH2 14.968 21.984 26.882 oh 686 TIP3_686   -0.834
8141 H1 14.021 22.010 27.007 ho 686 TIP3_686    0.417
8142 H2 15.187 22.848 26.539 ho 686 TIP3_686    0.417
8143 OH2 14.853 11.638 30.439 oh 687 TIP3_687   -0.834
8144 H1 15.656 11.113 30.675 ho 687 TIP3_687    0.417
8145 H2 14.195 11.102 30.921 ho 687 TIP3_687    0.417
8146 OH2 24.097 20.164 37.868 oh 688 TIP3_688   -0.834
8147 H1 23.148 19.990 37.640 ho 688 TIP3_688    0.417
8148 H2 24.174 19.920 38.819 ho 688 TIP3_688    0.417
8149 OH2 14.804 20.250 29.067 oh 689 TIP3_689   -0.834
8150 H1 14.391 20.904 29.601 ho 689 TIP3_689    0.417
8151 H2 15.039 20.779 28.282 ho 689 TIP3_689    0.417
8152 OH2 1.014 16.845 30.579 oh 690 TIP3_690   -0.834
8153 H1 0.072 17.183 30.559 ho 690 TIP3_690    0.417
8154 H2 0.833 16.004 30.145 ho 690 TIP3_690    0.417
8155 OH2 3.189 17.908 32.097 oh 691 TIP3_691   -0.834
8156 H1 3.647 18.520 31.520 ho 691 TIP3_691    0.417
8157 H2 2.445 17.594 31.561 ho 691 TIP3_691    0.417
8158 OH2 23.825 14.622 28.517 oh 692 TIP3_692   -0.834
8159 H1 24.832 14.650 28.464 ho 692 TIP3_692    0.417
8160 H2 23.640 14.511 29.460 ho 692 TIP3_692    0.417
8161 OH2 6.408 2.285 35.079 oh 693 TIP3_693   -0.834
8162 H1 6.908 1.745 35.611 ho 693 TIP3_693    0.417
8163 H2 5.631 2.638 35.590 ho 693 TIP3_693    0.417
8164 OH2 7.961 11.077 28.179 oh 694 TIP3_694   -0.834
8165 H1 8.235 10.952 29.102 ho 694 TIP3_694    0.417
8166 H2 6.991 10.792 28.151 ho 694 TIP3_694    0.417
8167 OH2 19.103 5.304 33.775 oh 695 TIP3_695   -0.834
8168 H1 18.739 5.358 34.667 ho 695 TIP3_695    0.417
8169 H2 19.649 6.059 33.700 ho 695 TIP3_695    0.417
8170 OH2 12.915 14.559 33.026 oh 696 TIP3_696   -0.834
8171 H1 12.262 14.955 33.592 ho 696 TIP3_696    0.417
8172 H2 12.870 15.197 32.307 ho 696 TIP3_696    0.417
8173 OH2 14.928 22.656 23.404 oh 697 TIP3_697   -0.834
8174 H1 14.076 22.522 23.573 ho 697 TIP3_697    0.417
8175 H2 14.944 22.702 22.422 ho 697 TIP3_697    0.417
8176 OH2 3.603 0.046 34.175 oh 698 TIP3_698   -0.834
8177 H1 3.196 0.721 34.770 ho 698 TIP3_698    0.417
8178 H2 3.345 0.319 33.315 ho 698 TIP3_698    0.417
8179 OH2 4.991 3.121 32.651 oh 699 TIP3_699   -0.834
8180 H1 4.530 3.721 33.258 ho 699 TIP3_699    0.417
8181 H2 5.596 2.688 33.289 ho 699 TIP3_699    0.417
8182 OH2 4.162 16.524 26.114 oh 700 TIP3_700   -0.834
8183 H1 3.782 17.387 26.421 ho 700 TIP3_700    0.417
8184 H2 4.567 16.794 25.276 ho 700 TIP3_700    0.417
8185 OH2 9.528 24.243 31.323 oh 701 TIP3_701   -0.834
8186 H1 9.106 23.780 32.069 ho 701 TIP3_701    0.417
8187 H2 8.788 24.595 30.802 ho 701 TIP3_701    0.417
8188 OH2 9.858 10.098 31.049 oh 702 TIP3_702   -0.834
8189 H1 9.077 10.462 31.414 ho 702 TIP3_702    0.417
8190 H2 10.510 10.851 30.809 ho 702 TIP3_702    0.417
8191 OH2 18.496 16.367 28.483 oh 703 TIP3_703   -0.834
8192 H1 19.060 16.420 27.636 ho 703 TIP3_703    0.417
8193 H2 19.086 16.104 29.135 ho 703 TIP3_703    0.417
8194 OH2 9.880 18.307 25.993 oh 704 TIP3_704   -0.834
8195 H1 9.700 18.354 25.025 ho 704 TIP3_704    0.417
8196 H2 10.236 19.166 26.122 ho 704 TIP3_704    0.417
8197 OH2 11.105 8.536 22.853 oh 705 TIP3_705   -0.834
8198 H1 10.508 7.849 23.315 ho 705 TIP3_705    0.417
8199 H2 11.560 8.953 23.629 ho 705 TIP3_705    0.417
8200 OH2 18.963 0.606 28.075 oh 706 TIP3_706   -0.834
8201 H1 19.761 0.198 28.407 ho 706 TIP3_706    0.417
8202 H2 19.347 1.250 27.410 ho 706 TIP3_706    0.417
8203 OH2 3.614 23.324 30.275 oh 707 TIP3_707   -0.834
8204 H1 4.126 23.216 31.067 ho 707 TIP3_707    0.417
8205 H2 2.748 23.295 30.593 ho 707 TIP3_707    0.417
8206 OH2 3.287 4.686 34.390 oh 708 TIP3_708   -0.834
8207 H1 3.048 4.997 35.289 ho 708 TIP3_708    0.417
8208 H2 2.596 3.964 34.319 ho 708 TIP3_708    0.417
8209 OH2 23.584 19.921 31.509 oh 709 TIP3_709   -0.834
8210 H1 24.410 20.298 31.131 ho 709 TIP3_709    0.417
8211 H2 23.618 20.134 32.435 ho 709 TIP3_709    0.417
8212 OH2 16.324 22.206 33.057 oh 710 TIP3_710   -0.834
8213 H1 17.221 22.365 32.881 ho 710 TIP3_710    0.417
8214 H2 15.950 22.278 32.136 ho 710 TIP3_710    0.417
8215 OH2 19.075 2.059 39.130 oh 711 TIP3_711   -0.834
8216 H1 18.552 1.941 39.979 ho 711 TIP3_711    0.417
8217 H2 18.423 2.118 38.386 ho 711 TIP3_711    0.417
8218 OH2 7.300 5.502 30.496 oh 712 TIP3_712   -0.834
8219 H1 7.005 5.159 29.677 ho 712 TIP3_712    0.417
8220 H2 6.914 6.375 30.602 ho 712 TIP3_712    0.417
8221 OH2 16.624 14.048 28.281 oh 713 TIP3_713   -0.834
8222 H1 17.033 14.837 27.914 ho 713 TIP3_713    0.417
8223 H2 16.961 14.028 29.122 ho 713 TIP3_713    0.417
8224 OH2 2.617 12.973 22.446 oh 714 TIP3_714   -0.834
8225 H1 3.207 12.675 21.791 ho 714 TIP3_714    0.417
8226 H2 2.227 13.752 21.970 ho 714 TIP3_714    0.417
8227 OH2 9.629 19.743 23.705 oh 715 TIP3_715   -0.834
8228 H1 8.942 20.276 23.192 ho 715 TIP3_715    0.417
8229 H2 10.281 19.496 23.004 ho 715 TIP3_715    0.417
8230 OH2 19.346 7.312 37.358 oh 716 TIP3_716   -0.834
8231 H1 18.408 7.598 37.408 ho 716 TIP3_716    0.417
8232 H2 19.277 6.345 37.295 ho 716 TIP3_716    0.417
8233 OH2 22.367 5.772 38.016 oh 717 TIP3_717   -0.834
8234 H1 21.542 5.491 38.489 ho 717 TIP3_717    0.417
8235 H2 22.968 5.144 38.324 ho 717 TIP3_717    0.417
8236 OH2 10.900 11.217 36.189 oh 718 TIP3_718   -0.834
8237 H1 10.441 10.887 36.962 ho 718 TIP3_718    0.417
8238 H2 10.819 10.482 35.536 ho 718 TIP3_718    0.417
8239 OH2 21.980 20.202 35.994 oh 719 TIP3_719   -0.834
8240 H1 22.800 20.304 35.488 ho 719 TIP3_719    0.417
8241 H2 21.564 19.422 35.465 ho 719 TIP3_719    0.417
8242 OH2 9.936 12.763 33.906 oh 720 TIP3_720   -0.834
8243 H1 9.177 12.204 33.745 ho 720 TIP3_720    0.417
8244 H2 10.428 12.293 34.618 ho 720 TIP3_720    0.417
8245 OH2 18.344 21.721 29.482 oh 721 TIP3_721   -0.834
8246 H1 18.911 22.222 30.045 ho 721 TIP3_721    0.417
8247 H2 18.719 20.826 29.428 ho 721 TIP3_721    0.417
8248 OH2 14.527 1.045 34.052 oh 722 TIP3_722   -0.834
8249 H1 13.938 0.260 34.038 ho 722 TIP3_722    0.417
8250 H2 14.052 1.684 33.522 ho 722 TIP3_722    0.417
8251 OH2 22.237 22.607 30.358 oh 723 TIP3_723   -0.834
8252 H1 22.831 21.868 30.543 ho 723 TIP3_723    0.417
8253 H2 22.126 23.017 31.198 ho 723 TIP3_723    0.417
8254 OH2 19.144 15.800 22.291 oh 724 TIP3_724   -0.834
8255 H1 19.558 14.965 22.002 ho 724 TIP3_724    0.417
8256 H2 18.218 15.576 22.276 ho 724 TIP3_724    0.417
8257 OH2 10.448 0.338 22.988 oh 725 TIP3_725   -0.834
8258 H1 11.081 1.048 22.790 ho 725 TIP3_725    0.417
8259 H2 9.630 0.611 22.510 ho 725 TIP3_725    0.417
8260 OH2 12.406 19.764 24.668 oh 726 TIP3_726   -0.834
8261 H1 11.765 20.123 25.360 ho 726 TIP3_726    0.417
8262 H2 12.446 20.466 24.027 ho 726 TIP3_726    0.417
8263 OH2 4.395 20.017 23.100 oh 727 TIP3_727   -0.834
8264 H1 4.667 20.745 23.729 ho 727 TIP3_727    0.417
8265 H2 5.276 19.615 22.872 ho 727 TIP3_727    0.417
8266 OH2 14.291 9.450 32.262 oh 728 TIP3_728   -0.834
8267 H1 13.552 9.975 32.056 ho 728 TIP3_728    0.417
8268 H2 13.950 8.553 32.105 ho 728 TIP3_728    0.417
8269 OH2 7.174 13.309 30.299 oh 729 TIP3_729   -0.834
8270 H1 6.952 14.107 29.788 ho 729 TIP3_729    0.417
8271 H2 7.026 13.641 31.217 ho 729 TIP3_729    0.417
8272 OH2 10.200 21.434 26.472 oh 730 TIP3_730   -0.834
8273 H1 9.821 21.984 25.796 ho 730 TIP3_730    0.417
8274 H2 9.486 21.386 27.120 ho 730 TIP3_730    0.417
8275 OH2 22.110 18.427 26.448 oh 731 TIP3_731   -0.834
8276 H1 22.965 18.714 26.938 ho 731 TIP3_731    0.417
8277 H2 21.919 17.561 26.836 ho 731 TIP3_731    0.417
8278 OH2 16.758 7.932 38.080 oh 732 TIP3_732   -0.834
8279 H1 16.954 7.534 38.906 ho 732 TIP3_732    0.417
8280 H2 16.275 8.712 38.311 ho 732 TIP3_732    0.417
8281 OH2 13.022 19.751 32.942 oh 733 TIP3_733   -0.834
8282 H1 12.228 20.005 33.461 ho 733 TIP3_733    0.417
8283 H2 12.674 20.018 32.074 ho 733 TIP3_733    0.417
8284 OH2 18.910 19.824 21.276 oh 734 TIP3_734   -0.834
8285 H1 18.721 19.522 22.142 ho 734 TIP3_734    0.417
8286 H2 19.229 19.063 20.804 ho 734 TIP3_734    0.417
8287 OH2 16.712 6.504 32.628 oh 735 TIP3_735   -0.834
8288 H1 17.466 6.131 33.125 ho 735 TIP3_735    0.417
8289 H2 15.988 6.552 33.298 ho 735 TIP3_735    0.417
8290 OH2 3.131 8.693 30.831 oh 736 TIP3_736   -0.834
8291 H1 3.039 7.821 31.175 ho 736 TIP3_736    0.417
8292 H2 2.481 8.666 30.087 ho 736 TIP3_736    0.417
8293 OH2 1.643 20.164 33.888 oh 737 TIP3_737   -0.834
8294 H1 1.838 19.758 34.785 ho 737 TIP3_737    0.417
8295 H2 2.335 19.836 33.317 ho 737 TIP3_737    0.417
8296 OH2 17.708 22.176 23.910 oh 738 TIP3_738   -0.834
8297 H1 17.030 22.419 23.215 ho 738 TIP3_738    0.417
8298 H2 17.289 21.536 24.419 ho 738 TIP3_738    0.417
8299 OH2 8.820 21.097 28.795 oh 739 TIP3_739   -0.834
8300 H1 9.469 21.356 29.381 ho 739 TIP3_739    0.417
8301 H2 8.109 21.703 29.061 ho 739 TIP3_739    0.417
8302 OH2 3.675 8.919 35.170 oh 740 TIP3_740   -0.834
8303 H1 3.333 7.994 35.187 ho 740 TIP3_740    0.417
8304 H2 3.157 9.335 35.828 ho 740 TIP3_740    0.417
8305 OH2 0.913 8.682 23.717 oh 741 TIP3_741   -0.834
8306 H1 0.208 8.449 23.111 ho 741 TIP3_741    0.417
8307 H2 0.757 9.614 23.893 ho 741 TIP3_741    0.417
8308 OH2 18.948 15.218 33.200 oh 742 TIP3_742   -0.834
8309 H1 18.232 15.820 33.028 ho 742 TIP3_742    0.417
8310 H2 18.515 14.435 33.549 ho 742 TIP3_742    0.417
8311 OH2 21.291 12.273 24.563 oh 743 TIP3_743   -0.834
8312 H1 21.616 11.336 24.479 ho 743 TIP3_743    0.417
8313 H2 21.518 12.478 25.454 ho 743 TIP3_743    0.417
8314 OH2 12.653 24.895 25.340 oh 744 TIP3_744   -0.834
8315 H1 13.373 24.890 25.993 ho 744 TIP3_744    0.417
8316 H2 12.599 23.968 25.063 ho 744 TIP3_744    0.417
8317 OH2 17.161 1.152 34.507 oh 745 TIP3_745   -0.834
8318 H1 16.140 1.312 34.523 ho 745 TIP3_745    0.417
8319 H2 17.510 1.708 33.781 ho 745 TIP3_745    0.417
8320 OH2 -0.057 14.812 28.699 oh 746 TIP3_746   -0.834
8321 H1 -0.160 13.876 28.568 ho 746 TIP3_746    0.417
8322 H2 0.901 14.929 28.587 ho 746 TIP3_746    0.417
8323 OH2 24.475 17.312 25.279 oh 747 TIP3_747   -0.834
8324 H1 24.685 17.938 26.002 ho 747 TIP3_747    0.417
8325 H2 23.484 17.392 25.266 ho 747 TIP3_747    0.417
8326 OH2 19.892 4.754 39.106 oh 748 TIP3_748   -0.834
8327 H1 19.525 5.511 39.632 ho 748 TIP3_748    0.417
8328 H2 19.991 3.969 39.731 ho 748 TIP3_748    0.417
8329 OH2 24.433 1.769 28.143 oh 749 TIP3_749   -0.834
8330 H1 24.323 0.854 28.431 ho 749 TIP3_749    0.417
8331 H2 23.575 2.116 28.489 ho 749 TIP3_749    0.417
8332 OH2 6.795 2.923 22.428 oh 750 TIP3_750   -0.834
8333 H1 7.331 2.708 23.252 ho 750 TIP3_750    0.417
8334 H2 6.121 2.250 22.411 ho 750 TIP3_750    0.417
8335 OH2 1.337 16.042 37.475 oh 751 TIP3_751   -0.834
8336 H1 1.070 15.145 37.766 ho 751 TIP3_751    0.417
8337 H2 0.681 16.294 36.757 ho 751 TIP3_751    0.417
8338 OH2 6.054 15.685 29.413 oh 752 TIP3_752   -0.834
8339 H1 6.139 16.266 30.184 ho 752 TIP3_752    0.417
8340 H2 6.249 16.252 28.654 ho 752 TIP3_752    0.417
8341 OH2 0.333 4.573 21.867 oh 753 TIP3_753   -0.834
8342 H1 0.704 4.277 21.066 ho 753 TIP3_753    0.417
8343 H2 -0.643 4.702 21.621 ho 753 TIP3_753    0.417
8344 OH2 13.184 13.079 28.126 oh 754 TIP3_754   -0.834
8345 H1 12.940 12.568 28.836 ho 754 TIP3_754    0.417
8346 H2 14.167 13.220 28.238 ho 754 TIP3_754    0.417
8347 OH2 18.871 4.531 36.631 oh 755 TIP3_755   -0.834
8348 H1 19.332 4.453 37.515 ho 755 TIP3_755    0.417
8349 H2 18.176 3.785 36.761 ho 755 TIP3_755    0.417
8350 OH2 19.076 21.634 36.224 oh 756 TIP3_756   -0.834
8351 H1 19.852 21.110 36.225 ho 756 TIP3_756    0.417
8352 H2 19.385 22.486 36.562 ho 756 TIP3_756    0.417
8353 OH2 1.120 14.718 25.323 oh 757 TIP3_757   -0.834
8354 H1 1.701 14.194 25.956 ho 757 TIP3_757    0.417
8355 H2 1.011 15.564 25.828 ho 757 TIP3_757    0.417
8356 OH2 11.166 1.356 32.097 oh 758 TIP3_758   -0.834
8357 H1 10.328 1.530 32.525 ho 758 TIP3_758    0.417
8358 H2 11.749 2.118 32.422 ho 758 TIP3_758    0.417
8359 OH2 15.435 13.584 32.585 oh 759 TIP3_759   -0.834
8360 H1 14.578 13.844 33.010 ho 759 TIP3_759    0.417
8361 H2 15.195 13.031 31.837 ho 759 TIP3_759    0.417
8362 OH2 3.440 17.347 21.562 oh 760 TIP3_760   -0.834
8363 H1 2.990 16.725 21.050 ho 760 TIP3_760    0.417
8364 H2 3.110 18.194 21.120 ho 760 TIP3_760    0.417
8365 OH2 11.925 20.731 21.444 oh 761 TIP3_761   -0.834
8366 H1 12.816 20.357 21.682 ho 761 TIP3_761    0.417
8367 H2 11.942 20.586 20.452 ho 761 TIP3_761    0.417
8368 OH2 5.302 9.690 37.634 oh 762 TIP3_762   -0.834
8369 H1 5.568 8.747 37.567 ho 762 TIP3_762    0.417
8370 H2 4.350 9.665 37.402 ho 762 TIP3_762    0.417
8371 OH2 22.900 12.750 36.190 oh 763 TIP3_763   -0.834
8372 H1 22.481 12.993 35.353 ho 763 TIP3_763    0.417
8373 H2 22.900 13.601 36.678 ho 763 TIP3_763    0.417
8374 OH2 20.504 8.805 35.438 oh 764 TIP3_764   -0.834
8375 H1 21.222 8.206 35.769 ho 764 TIP3_764    0.417
8376 H2 19.756 8.496 35.936 ho 764 TIP3_764    0.417
8377 OH2 22.153 7.380 22.435 oh 765 TIP3_765   -0.834
8378 H1 21.339 7.106 22.033 ho 765 TIP3_765    0.417
8379 H2 22.236 6.711 23.126 ho 765 TIP3_765    0.417
8380 OH2 10.234 24.140 28.557 oh 766 TIP3_766   -0.834
8381 H1 10.236 24.191 29.529 ho 766 TIP3_766    0.417
8382 H2 9.640 24.914 28.413 ho 766 TIP3_766    0.417
8383 OH2 21.567 24.150 35.363 oh 767 TIP3_767   -0.834
8384 H1 20.695 24.500 35.638 ho 767 TIP3_767    0.417
8385 H2 22.020 23.787 36.138 ho 767 TIP3_767    0.417
8386 OH2 24.518 1.226 34.244 oh 768 TIP3_768   -0.834
8387 H1 23.611 0.893 34.410 ho 768 TIP3_768    0.417
8388 H2 24.603 2.074 34.629 ho 768 TIP3_768    0.417
8389 OH2 3.244 14.154 35.567 oh 769 TIP3_769   -0.834
8390 H1 3.315 14.142 36.517 ho 769 TIP3_769    0.417
8391 H2 3.062 15.117 35.444 ho 769 TIP3_769    0.417
8392 OH2 8.515 2.949 24.573 oh 770 TIP3_770   -0.834
8393 H1 9.176 3.330 23.946 ho 770 TIP3_770    0.417
8394 H2 8.737 3.284 25.393 ho 770 TIP3_770    0.417
8395 OH2 21.493 13.535 32.873 oh 771 TIP3_771   -0.834
8396 H1 21.366 12.787 33.481 ho 771 TIP3_771    0.417
8397 H2 20.718 14.070 33.063 ho 771 TIP3_771    0.417
8398 OH2 10.334 15.396 34.222 oh 772 TIP3_772   -0.834
8399 H1 10.097 15.417 35.132 ho 772 TIP3_772    0.417
8400 H2 10.227 14.439 33.948 ho 772 TIP3_772    0.417
8401 OH2 17.507 24.164 27.981 oh 773 TIP3_773   -0.834
8402 H1 17.647 23.296 28.214 ho 773 TIP3_773    0.417
8403 H2 18.194 24.580 28.505 ho 773 TIP3_773    0.417
8404 OH2 21.199 14.078 22.314 oh 774 TIP3_774   -0.834
8405 H1 20.697 13.562 23.032 ho 774 TIP3_774    0.417
8406 H2 21.873 14.536 22.930 ho 774 TIP3_774    0.417
8407 OH2 3.000 16.877 39.669 oh 775 TIP3_775   -0.834
8408 H1 3.602 17.081 38.973 ho 775 TIP3_775    0.417
8409 H2 2.214 16.555 39.199 ho 775 TIP3_775    0.417
8410 OH2 21.535 23.508 27.792 oh 776 TIP3_776   -0.834
8411 H1 20.632 23.622 27.498 ho 776 TIP3_776    0.417
8412 H2 21.482 23.289 28.753 ho 776 TIP3_776    0.417
8413 OH2 5.868 3.734 28.150 oh 777 TIP3_777   -0.834
8414 H1 5.991 4.422 27.439 ho 777 TIP3_777    0.417
8415 H2 6.515 3.043 27.904 ho 777 TIP3_777    0.417
8416 OH2 9.191 16.342 29.609 oh 778 TIP3_778   -0.834
8417 H1 8.579 16.619 28.858 ho 778 TIP3_778    0.417
8418 H2 10.053 16.224 29.260 ho 778 TIP3_778    0.417
8419 OH2 11.666 15.255 28.955 oh 779 TIP3_779   -0.834
8420 H1 12.176 14.436 28.862 ho 779 TIP3_779    0.417
8421 H2 12.406 15.877 28.919 ho 779 TIP3_779    0.417
8422 OH2 12.263 22.542 27.639 oh 780 TIP3_780   -0.834
8423 H1 11.529 21.981 27.279 ho 780 TIP3_780    0.417
8424 H2 11.836 23.384 27.929 ho 780 TIP3_780    0.417
8425 OH2 0.803 17.232 26.617 oh 781 TIP3_781   -0.834
8426 H1 1.520 17.698 27.107 ho 781 TIP3_781    0.417
8427 H2 0.050 17.486 27.149 ho 781 TIP3_781    0.417
8428 OH2 2.499 19.384 36.267 oh 782 TIP3_782   -0.834
8429 H1 2.168 18.922 37.044 ho 782 TIP3_782    0.417
8430 H2 2.719 20.219 36.613 ho 782 TIP3_782    0.417
8431 OH2 7.160 18.588 38.629 oh 783 TIP3_783   -0.834
8432 H1 7.246 19.496 38.979 ho 783 TIP3_783    0.417
8433 H2 8.039 18.240 38.960 ho 783 TIP3_783    0.417
8434 OH2 8.811 20.098 31.930 oh 784 TIP3_784   -0.834
8435 H1 8.827 19.171 32.189 ho 784 TIP3_784    0.417
8436 H2 9.602 20.191 31.394 ho 784 TIP3_784    0.417
8437 OH2 11.131 19.658 30.281 oh 785 TIP3_785   -0.834
8438 H1 10.696 19.488 29.454 ho 785 TIP3_785    0.417
8439 H2 11.828 18.921 30.192 ho 785 TIP3_785    0.417
8440 OH2 1.481 2.553 34.449 oh 786 TIP3_786   -0.834
8441 H1 1.004 2.381 35.324 ho 786 TIP3_786    0.417
8442 H2 0.929 2.078 33.801 ho 786 TIP3_786    0.417
8443 OH2 12.281 6.681 39.660 oh 787 TIP3_787   -0.834
8444 H1 12.520 7.442 39.078 ho 787 TIP3_787    0.417
8445 H2 12.940 6.105 39.296 ho 787 TIP3_787    0.417
8446 OH2 8.010 1.672 32.756 oh 788 TIP3_788   -0.834
8447 H1 7.982 2.638 32.841 ho 788 TIP3_788    0.417
8448 H2 7.347 1.374 33.375 ho 788 TIP3_788    0.417
8449 OH2 7.713 1.595 27.829 oh 789 TIP3_789   -0.834
8450 H1 8.443 1.598 27.216 ho 789 TIP3_789    0.417
8451 H2 7.159 0.868 27.588 ho 789 TIP3_789    0.417
8452 OH2 8.139 13.601 21.894 oh 790 TIP3_790   -0.834
8453 H1 8.752 13.890 21.182 ho 790 TIP3_790    0.417
8454 H2 8.772 13.044 22.401 ho 790 TIP3_790    0.417
8455 OH2 22.273 16.400 20.745 oh 791 TIP3_791   -0.834
8456 H1 22.534 17.081 21.405 ho 791 TIP3_791    0.417
8457 H2 22.400 15.532 21.204 ho 791 TIP3_791    0.417
8458 OH2 23.749 21.602 28.014 oh 792 TIP3_792   -0.834
8459 H1 22.842 21.885 27.931 ho 792 TIP3_792    0.417
8460 H2 24.025 21.886 28.884 ho 792 TIP3_792    0.417
8461 OH2 13.872 5.165 38.071 oh 793 TIP3_793   -0.834
8462 H1 14.333 4.322 38.239 ho 793 TIP3_793    0.417
8463 H2 14.365 5.598 37.312 ho 793 TIP3_793    0.417
8464 OH2 1.173 1.160 27.467 oh 794 TIP3_794   -0.834
8465 H1 0.814 2.030 27.031 ho 794 TIP3_794    0.417
8466 H2 2.180 1.313 27.419 ho 794 TIP3_794    0.417
8467 OH2 22.468 18.910 23.105 oh 795 TIP3_795   -0.834
8468 H1 22.291 19.305 23.951 ho 795 TIP3_795    0.417
8469 H2 22.288 17.995 23.305 ho 795 TIP3_795    0.417
8470 OH2 17.217 9.711 30.709 oh 796 TIP3_796   -0.834
8471 H1 18.001 10.218 31.156 ho 796 TIP3_796    0.417
8472 H2 17.134 8.889 31.162 ho 796 TIP3_796    0.417
8473 OH2 23.910 11.527 30.056 oh 797 TIP3_797   -0.834
8474 H1 24.615 11.743 29.506 ho 797 TIP3_797    0.417
8475 H2 23.595 12.378 30.420 ho 797 TIP3_797    0.417
8476 OH2 8.264 17.780 22.365 oh 798 TIP3_798   -0.834
8477 H1 7.379 17.426 22.564 ho 798 TIP3_798    0.417
8478 H2 8.169 18.710 22.537 ho 798 TIP3_798    0.417
8479 OH2 16.693 1.664 29.127 oh 799 TIP3_799   -0.834
8480 H1 15.850 1.311 28.722 ho 799 TIP3_799    0.417
8481 H2 17.330 1.065 28.629 ho 799 TIP3_799    0.417
8482 OH2 9.785 9.606 34.113 oh 800 TIP3_800   -0.834
8483 H1 9.825 9.231 33.220 ho 800 TIP3_800    0.417
8484 H2 8.990 9.217 34.509 ho 800 TIP3_800    0.417
8485 OH2 6.921 11.349 20.684 oh 801 TIP3_801   -0.834
8486 H1 7.073 12.178 21.190 ho 801 TIP3_801    0.417
8487 H2 7.539 10.792 21.189 ho 801 TIP3_801    0.417
8488 OH2 20.901 15.257 36.187 oh 802 TIP3_802   -0.834
8489 H1 20.136 15.740 36.488 ho 802 TIP3_802    0.417
8490 H2 21.621 15.528 36.795 ho 802 TIP3_802    0.417
8491 OH2 18.583 11.229 21.664 oh 803 TIP3_803   -0.834
8492 H1 17.868 11.542 22.289 ho 803 TIP3_803    0.417
8493 H2 18.282 10.372 21.527 ho 803 TIP3_803    0.417
8494 OH2 11.162 2.874 38.398 oh 804 TIP3_804   -0.834
8495 H1 12.054 2.642 38.619 ho 804 TIP3_804    0.417
8496 H2 10.784 2.060 38.339 ho 804 TIP3_804    0.417
8497 OH2 12.725 4.266 23.185 oh 805 TIP3_805   -0.834
8498 H1 12.016 4.377 23.838 ho 805 TIP3_805    0.417
8499 H2 12.279 4.451 22.346 ho 805 TIP3_805    0.417
8500 OH2 5.069 10.308 27.498 oh 806 TIP3_806   -0.834
8501 H1 5.483 10.292 26.665 ho 806 TIP3_806    0.417
8502 H2 4.513 9.548 27.552 ho 806 TIP3_806    0.417
8503 OH2 3.314 6.034 31.932 oh 807 TIP3_807   -0.834
8504 H1 3.977 5.813 32.590 ho 807 TIP3_807    0.417
8505 H2 2.711 5.233 32.007 ho 807 TIP3_807    0.417
8506 OH2 1.637 11.087 26.424 oh 808 TIP3_808   -0.834
8507 H1 2.498 11.252 26.012 ho 808 TIP3_808    0.417
8508 H2 1.017 11.028 25.675 ho 808 TIP3_808    0.417
8509 OH2 16.710 21.695 38.147 oh 809 TIP3_809   -0.834
8510 H1 17.561 21.487 37.716 ho 809 TIP3_809    0.417
8511 H2 16.466 22.534 37.729 ho 809 TIP3_809    0.417
8512 OH2 23.634 10.287 36.930 oh 810 TIP3_810   -0.834
8513 H1 23.427 11.220 36.801 ho 810 TIP3_810    0.417
8514 H2 24.097 9.998 36.095 ho 810 TIP3_810    0.417
8515 OH2 2.633 5.515 23.238 oh 811 TIP3_811   -0.834
8516 H1 2.100 5.148 22.463 ho 811 TIP3_811    0.417
8517 H2 3.333 6.011 22.765 ho 811 TIP3_811    0.417
8518 OH2 18.668 5.987 30.268 oh 812 TIP3_812   -0.834
8519 H1 17.861 6.239 30.764 ho 812 TIP3_812    0.417
8520 H2 19.310 6.654 30.441 ho 812 TIP3_812    0.417
8521 OH2 21.997 22.901 32.984 oh 813 TIP3_813   -0.834
8522 H1 21.909 23.670 33.647 ho 813 TIP3_813    0.417
8523 H2 22.389 22.174 33.532 ho 813 TIP3_813    0.417
8524 OH2 16.583 19.844 25.844 oh 814 TIP3_814   -0.834
8525 H1 16.404 19.029 26.283 ho 814 TIP3_814    0.417
8526 H2 16.074 20.440 26.331 ho 814 TIP3_814    0.417
8527 OH2 4.604 23.129 27.528 oh 815 TIP3_815   -0.834
8528 H1 3.764 23.130 28.024 ho 815 TIP3_815    0.417
8529 H2 4.643 24.095 27.307 ho 815 TIP3_815    0.417
8530 OH2 2.357 11.032 33.576 oh 816 TIP3_816   -0.834
8531 H1 2.873 10.271 33.939 ho 816 TIP3_816    0.417
8532 H2 2.529 10.967 32.584 ho 816 TIP3_816    0.417
8533 OH2 21.201 16.503 24.066 oh 817 TIP3_817   -0.834
8534 H1 20.890 16.995 24.793 ho 817 TIP3_817    0.417
8535 H2 20.438 16.132 23.599 ho 817 TIP3_817    0.417
8536 OH2 11.983 22.494 23.687 oh 818 TIP3_818   -0.834
8537 H1 11.049 22.605 23.852 ho 818 TIP3_818    0.417
8538 H2 12.059 22.137 22.738 ho 818 TIP3_818    0.417
8539 OH2 9.961 13.217 30.330 oh 819 TIP3_819   -0.834
8540 H1 10.628 13.919 30.094 ho 819 TIP3_819    0.417
8541 H2 9.123 13.595 29.983 ho 819 TIP3_819    0.417
8542 OH2 15.446 23.240 35.499 oh 820 TIP3_820   -0.834
8543 H1 15.836 22.970 34.627 ho 820 TIP3_820    0.417
8544 H2 16.123 23.837 35.843 ho 820 TIP3_820    0.417
8545 OH2 9.627 14.477 26.448 oh 821 TIP3_821   -0.834
8546 H1 10.534 14.676 26.821 ho 821 TIP3_821    0.417
8547 H2 9.656 14.858 25.547 ho 821 TIP3_821    0.417
8548 OH2 1.162 21.448 27.009 oh 822 TIP3_822   -0.834
8549 H1 1.683 21.928 26.313 ho 822 TIP3_822    0.417
8550 H2 1.855 21.237 27.711 ho 822 TIP3_822    0.417
8551 OH2 20.629 11.678 34.753 oh 823 TIP3_823   -0.834
8552 H1 20.040 11.910 35.451 ho 823 TIP3_823    0.417
8553 H2 21.006 10.811 34.983 ho 823 TIP3_823    0.417
8554 OH2 2.107 3.478 31.404 oh 824 TIP3_824   -0.834
8555 H1 2.630 2.674 31.158 ho 824 TIP3_824    0.417
8556 H2 1.224 3.217 31.275 ho 824 TIP3_824    0.417
8557 OH2 21.733 15.845 27.623 oh 825 TIP3_825   -0.834
8558 H1 21.472 16.103 28.572 ho 825 TIP3_825    0.417
8559 H2 22.506 15.321 27.658 ho 825 TIP3_825    0.417
8560 OH2 21.353 5.065 24.618 oh 826 TIP3_826   -0.834
8561 H1 21.053 4.411 23.976 ho 826 TIP3_826    0.417
8562 H2 22.115 4.604 24.982 ho 826 TIP3_826    0.417
8563 OH2 17.544 1.926 21.411 oh 827 TIP3_827   -0.834
8564 H1 18.242 1.369 21.847 ho 827 TIP3_827    0.417
8565 H2 17.786 2.809 21.768 ho 827 TIP3_827    0.417
8566 OH2 1.978 -0.252 30.191 oh 828 TIP3_828   -0.834
8567 H1 2.752 0.332 30.403 ho 828 TIP3_828    0.417
8568 H2 1.598 0.191 29.464 ho 828 TIP3_828    0.417
8569 OH2 9.634 15.827 23.914 oh 829 TIP3_829   -0.834
8570 H1 9.315 16.664 23.428 ho 829 TIP3_829    0.417
8571 H2 9.081 15.168 23.574 ho 829 TIP3_829    0.417
8572 OH2 14.576 16.100 27.892 oh 830 TIP3_830   -0.834
8573 H1 15.304 15.628 28.309 ho 830 TIP3_830    0.417
8574 H2 14.843 16.162 26.983 ho 830 TIP3_830    0.417
8575 OH2 16.922 17.099 33.240 oh 831 TIP3_831   -0.834
8576 H1 16.828 17.400 32.279 ho 831 TIP3_831    0.417
8577 H2 17.057 17.954 33.720 ho 831 TIP3_831    0.417
8578 OH2 22.869 16.334 33.715 oh 832 TIP3_832   -0.834
8579 H1 22.197 16.517 32.976 ho 832 TIP3_832    0.417
8580 H2 22.356 15.984 34.444 ho 832 TIP3_832    0.417
8581 OH2 19.882 23.641 25.453 oh 833 TIP3_833   -0.834
8582 H1 20.461 22.927 25.087 ho 833 TIP3_833    0.417
8583 H2 18.932 23.241 25.435 ho 833 TIP3_833    0.417
8584 OH2 0.994 6.533 25.264 oh 834 TIP3_834   -0.834
8585 H1 0.842 7.366 24.858 ho 834 TIP3_834    0.417
8586 H2 1.717 6.090 24.681 ho 834 TIP3_834    0.417
8587 OH2 7.804 20.801 22.189 oh 835 TIP3_835   -0.834
8588 H1 7.932 21.116 21.266 ho 835 TIP3_835    0.417
8589 H2 7.236 21.475 22.543 ho 835 TIP3_835    0.417
8590 OH2 18.021 9.664 34.217 oh 836 TIP3_836   -0.834
8591 H1 18.888 9.471 34.667 ho 836 TIP3_836    0.417
8592 H2 18.215 10.052 33.366 ho 836 TIP3_836    0.417
8593 OH2 22.299 22.599 25.232 oh 837 TIP3_837   -0.834
8594 H1 22.068 22.462 26.207 ho 837 TIP3_837    0.417
8595 H2 22.002 21.784 24.840 ho 837 TIP3_837    0.417
8596 OH2 0.549 11.436 23.753 oh 838 TIP3_838   -0.834
8597 H1 0.959 12.229 23.441 ho 838 TIP3_838    0.417
8598 H2 -0.355 11.500 23.347 ho 838 TIP3_838    0.417
8599 OH2 5.912 19.795 28.441 oh 839 TIP3_839   -0.834
8600 H1 6.038 19.925 27.531 ho 839 TIP3_839    0.417
8601 H2 6.312 20.581 28.792 ho 839 TIP3_839    0.417
8602 OH2 18.540 4.512 21.830 oh 840 TIP3_840   -0.834
8603 H1 19.116 5.160 21.408 ho 840 TIP3_840    0.417
8604 H2 18.709 4.578 22.768 ho 840 TIP3_840    0.417
8605 OH2 12.180 2.008 21.633 oh 841 TIP3_841   -0.834
8606 H1 11.385 1.959 21.167 ho 841 TIP3_841    0.417
8607 H2 12.222 2.850 22.041 ho 841 TIP3_841    0.417
8608 OH2 8.812 4.049 36.558 oh 842 TIP3_842   -0.834
8609 H1 8.368 3.234 36.364 ho 842 TIP3_842    0.417
8610 H2 9.731 3.861 36.327 ho 842 TIP3_842    0.417
8611 OH2 9.533 23.411 24.360 oh 843 TIP3_843   -0.834
8612 H1 9.129 23.827 25.131 ho 843 TIP3_843    0.417
8613 H2 9.065 23.787 23.602 ho 843 TIP3_843    0.417
8614 OH2 3.780 1.524 27.976 oh 844 TIP3_844   -0.834
8615 H1 4.484 2.192 27.939 ho 844 TIP3_844    0.417
8616 H2 3.952 1.125 28.837 ho 844 TIP3_844    0.417
8617 OH2 19.751 0.645 22.569 oh 845 TIP3_845   -0.834
8618 H1 20.135 -0.032 21.917 ho 845 TIP3_845    0.417
8619 H2 20.512 1.054 22.953 ho 845 TIP3_845    0.417
8620 OH2 19.126 11.361 28.042 oh 846 TIP3_846   -0.834
8621 H1 18.288 11.817 28.128 ho 846 TIP3_846    0.417
8622 H2 19.695 11.710 28.780 ho 846 TIP3_846    0.417
8623 OH2 19.283 23.957 37.655 oh 847 TIP3_847   -0.834
8624 H1 19.874 24.685 37.678 ho 847 TIP3_847    0.417
8625 H2 18.414 24.423 37.701 ho 847 TIP3_847    0.417
8626 OH2 16.899 11.187 24.634 oh 848 TIP3_848   -0.834
8627 H1 17.311 10.355 24.811 ho 848 TIP3_848    0.417
8628 H2 16.087 10.864 24.181 ho 848 TIP3_848    0.417
8629 OH2 1.729 22.515 24.561 oh 849 TIP3_849   -0.834
8630 H1 1.852 21.659 24.129 ho 849 TIP3_849    0.417
8631 H2 1.226 22.942 23.852 ho 849 TIP3_849    0.417
8632 OH2 23.799 15.117 22.762 oh 850 TIP3_850   -0.834
8633 H1 23.905 15.886 23.329 ho 850 TIP3_850    0.417
8634 H2 24.658 14.679 22.761 ho 850 TIP3_850    0.417
8635 OH2 1.340 16.997 23.355 oh 851 TIP3_851   -0.834
8636 H1 2.166 16.935 22.930 ho 851 TIP3_851    0.417
8637 H2 1.513 16.497 24.136 ho 851 TIP3_851    0.417
8638 OH2 4.361 20.841 37.827 oh 852 TIP3_852   -0.834
8639 H1 5.067 21.073 37.208 ho 852 TIP3_852    0.417
8640 H2 4.607 19.999 38.141 ho 852 TIP3_852    0.417
8641 OH2 16.775 14.706 21.971 oh 853 TIP3_853   -0.834
8642 H1 16.282 15.539 22.033 ho 853 TIP3_853    0.417
8643 H2 16.443 14.192 22.728 ho 853 TIP3_853    0.417
8644 OH2 3.583 5.824 29.102 oh 854 TIP3_854   -0.834
8645 H1 3.557 5.908 30.115 ho 854 TIP3_854    0.417
8646 H2 4.160 5.067 29.031 ho 854 TIP3_854    0.417
8647 OH2 7.941 22.385 35.934 oh 855 TIP3_855   -0.834
8648 H1 6.967 22.558 35.995 ho 855 TIP3_855    0.417
8649 H2 8.084 21.909 36.752 ho 855 TIP3_855    0.417
8650 OH2 6.353 19.043 25.567 oh 856 TIP3_856   -0.834
8651 H1 6.295 18.551 24.758 ho 856 TIP3_856    0.417
8652 H2 7.058 19.687 25.350 ho 856 TIP3_856    0.417
8653 OH2 2.907 14.520 27.508 oh 857 TIP3_857   -0.834
8654 H1 3.692 14.038 27.906 ho 857 TIP3_857    0.417
8655 H2 3.329 15.309 27.170 ho 857 TIP3_857    0.417
8656 OH2 15.999 7.993 28.323 oh 858 TIP3_858   -0.834
8657 H1 15.811 7.182 28.733 ho 858 TIP3_858    0.417
8658 H2 16.099 8.590 29.054 ho 858 TIP3_858    0.417
8659 OH2 24.079 4.231 31.886 oh 859 TIP3_859   -0.834
8660 H1 23.382 4.558 31.323 ho 859 TIP3_859    0.417
8661 H2 23.989 3.222 31.831 ho 859 TIP3_859    0.417
8662 OH2 3.647 2.554 21.998 oh 860 TIP3_860   -0.834
8663 H1 3.327 1.745 22.309 ho 860 TIP3_860    0.417
8664 H2 3.323 3.125 22.649 ho 860 TIP3_860    0.417
8665 OH2 10.653 0.857 29.373 oh 861 TIP3_861   -0.834
8666 H1 10.956 1.183 30.233 ho 861 TIP3_861    0.417
8667 H2 11.136 1.461 28.778 ho 861 TIP3_861    0.417
8668 OH2 5.116 13.130 28.184 oh 862 TIP3_862   -0.834
8669 H1 5.739 12.963 28.887 ho 862 TIP3_862    0.417
8670 H2 4.814 12.221 27.994 ho 862 TIP3_862    0.417
8671 OH2 3.869 9.258 24.488 oh 863 TIP3_863   -0.834
8672 H1 4.150 10.156 24.552 ho 863 TIP3_863    0.417
8673 H2 3.016 9.391 23.975 ho 863 TIP3_863    0.417
8674 OH2 21.704 5.815 27.392 oh 864 TIP3_864   -0.834
8675 H1 22.303 6.464 27.101 ho 864 TIP3_864    0.417
8676 H2 21.326 5.524 26.550 ho 864 TIP3_864    0.417
8677 OH2 12.000 5.922 29.127 oh 865 TIP3_865   -0.834
8678 H1 12.827 6.075 29.563 ho 865 TIP3_865    0.417
8679 H2 11.406 6.698 29.343 ho 865 TIP3_865    0.417
8680 OH2 17.471 19.720 34.135 oh 866 TIP3_866   -0.834
8681 H1 17.895 20.351 34.791 ho 866 TIP3_866    0.417
8682 H2 16.619 20.104 33.994 ho 866 TIP3_866    0.417
8683 OH2 12.692 15.575 24.051 oh 867 TIP3_867   -0.834
8684 H1 12.700 14.634 24.317 ho 867 TIP3_867    0.417
8685 H2 11.776 15.720 23.969 ho 867 TIP3_867    0.417
8686 OH2 6.446 7.837 24.267 oh 868 TIP3_868   -0.834
8687 H1 5.780 7.260 24.731 ho 868 TIP3_868    0.417
8688 H2 5.857 8.590 23.895 ho 868 TIP3_868    0.417
8689 OH2 2.829 23.628 38.680 oh 869 TIP3_869   -0.834
8690 H1 3.621 23.208 39.138 ho 869 TIP3_869    0.417
8691 H2 2.635 23.035 37.969 ho 869 TIP3_869    0.417
8692 OH2 7.538 11.315 32.215 oh 870 TIP3_870   -0.834
8693 H1 6.589 11.133 31.975 ho 870 TIP3_870    0.417
8694 H2 7.745 11.978 31.476 ho 870 TIP3_870    0.417
8695 OH2 24.019 21.126 33.979 oh 871 TIP3_871   -0.834
8696 H1 24.475 21.956 33.742 ho 871 TIP3_871    0.417
8697 H2 24.651 20.580 34.487 ho 871 TIP3_871    0.417
8698 OH2 2.895 22.526 35.812 oh 872 TIP3_872   -0.834
8699 H1 3.580 22.043 35.391 ho 872 TIP3_872    0.417
8700 H2 2.193 22.592 35.090 ho 872 TIP3_872    0.417
8701 OH2 0.958 12.112 35.954 oh 873 TIP3_873   -0.834
8702 H1 1.463 12.075 35.117 ho 873 TIP3_873    0.417
8703 H2 1.119 13.021 36.250 ho 873 TIP3_873    0.417
8704 OH2 13.146 3.444 32.743 oh 874 TIP3_874   -0.834
8705 H1 13.822 3.278 32.101 ho 874 TIP3_874    0.417
8706 H2 13.298 4.354 33.113 ho 874 TIP3_874    0.417
8707 OH2 9.951 4.246 27.204 oh 875 TIP3_875   -0.834
8708 H1 10.492 4.897 26.816 ho 875 TIP3_875    0.417
8709 H2 9.064 4.568 26.918 ho 875 TIP3_875    0.417
8710 OH2 23.917 17.258 36.543 oh 876 TIP3_876   -0.834
8711 H1 24.441 17.372 35.786 ho 876 TIP3_876    0.417
8712 H2 24.559 17.558 37.252 ho 876 TIP3_876    0.417
8713 OH2 14.645 1.236 22.791 oh 877 TIP3_877   -0.834
8714 H1 14.992 0.787 21.980 ho 877 TIP3_877    0.417
8715 H2 13.780 1.551 22.469 ho 877 TIP3_877    0.417
8716 OH2 17.993 3.480 24.744 oh 878 TIP3_878   -0.834
8717 H1 17.511 2.612 24.847 ho 878 TIP3_878    0.417
8718 H2 17.300 4.148 24.550 ho 878 TIP3_878    0.417
8719 OH2 11.938 7.388 32.631 oh 879 TIP3_879   -0.834
8720 H1 11.351 7.372 31.912 ho 879 TIP3_879    0.417
8721 H2 11.380 6.959 33.366 ho 879 TIP3_879    0.417
8722 OH2 7.937 14.219 35.792 oh 880 TIP3_880   -0.834
8723 H1 7.903 13.243 35.688 ho 880 TIP3_880    0.417
8724 H2 8.607 14.380 36.477 ho 880 TIP3_880    0.417
8725 OH2 9.926 11.839 23.111 oh 881 TIP3_881   -0.834
8726 H1 10.857 11.522 22.906 ho 881 TIP3_881    0.417
8727 H2 9.963 11.861 24.109 ho 881 TIP3_881    0.417
8728 OH2 23.835 13.971 31.150 oh 882 TIP3_882   -0.834
8729 H1 24.315 14.786 31.375 ho 882 TIP3_882    0.417
8730 H2 23.465 13.707 31.962 ho 882 TIP3_882    0.417
8731 OH2 17.248 2.118 36.933 oh 883 TIP3_883   -0.834
8732 H1 17.128 2.046 35.958 ho 883 TIP3_883    0.417
8733 H2 17.647 1.300 37.205 ho 883 TIP3_883    0.417
8734 OH2 16.470 1.179 24.981 oh 884 TIP3_884   -0.834
8735 H1 15.687 0.867 25.508 ho 884 TIP3_884    0.417
8736 H2 16.103 1.145 24.033 ho 884 TIP3_884    0.417
8737 OH2 19.766 0.206 34.908 oh 885 TIP3_885   -0.834
8738 H1 20.017 0.061 33.935 ho 885 TIP3_885    0.417
8739 H2 18.951 0.727 34.824 ho 885 TIP3_885    0.417
8740 OH2 8.674 19.213 36.129 oh 886 TIP3_886   -0.834
8741 H1 7.753 19.505 36.007 ho 886 TIP3_886    0.417
8742 H2 8.706 18.938 37.087 ho 886 TIP3_886    0.417
8743 OH2 10.236 7.545 30.365 oh 887 TIP3_887   -0.834
8744 H1 9.374 7.178 30.584 ho 887 TIP3_887    0.417
8745 H2 10.075 8.510 30.558 ho 887 TIP3_887    0.417
8746 OH2 17.540 13.028 34.562 oh 888 TIP3_888   -0.834
8747 H1 17.076 12.219 34.899 ho 888 TIP3_888    0.417
8748 H2 16.834 13.443 33.981 ho 888 TIP3_888    0.417
8749 OH2 21.452 9.980 31.183 oh 889 TIP3_889   -0.834
8750 H1 22.102 9.821 30.444 ho 889 TIP3_889    0.417
8751 H2 21.985 9.750 31.953 ho 889 TIP3_889    0.417
8752 OH2 23.131 15.015 37.900 oh 890 TIP3_890   -0.834
8753 H1 24.139 14.981 38.156 ho 890 TIP3_890    0.417
8754 H2 23.208 15.749 37.253 ho 890 TIP3_890    0.417
8755 OH2 12.448 24.174 31.084 oh 891 TIP3_891   -0.834
8756 H1 12.892 24.677 30.349 ho 891 TIP3_891    0.417
8757 H2 11.578 24.402 30.941 ho 891 TIP3_891    0.417
8758 OH2 18.741 4.513 27.858 oh 892 TIP3_892   -0.834
8759 H1 19.065 5.060 28.586 ho 892 TIP3_892    0.417
8760 H2 18.923 5.117 27.130 ho 892 TIP3_892    0.417
8761 OH2 0.747 9.167 29.181 oh 893 TIP3_893   -0.834
8762 H1 0.515 9.736 28.367 ho 893 TIP3_893    0.417
8763 H2 -0.033 9.186 29.817 ho 893 TIP3_893    0.417
8764 OH2 24.083 7.049 30.603 oh 894 TIP3_894   -0.834
8765 H1 23.865 7.313 31.431 ho 894 TIP3_894    0.417
8766 H2 23.591 6.212 30.505 ho 894 TIP3_894    0.417
8767 OH2 14.896 7.391 21.536 oh 895 TIP3_895   -0.834
8768 H1 14.209 7.930 21.255 ho 895 TIP3_895    0.417
8769 H2 14.700 7.151 22.457 ho 895 TIP3_895    0.417
8770 OH2 19.170 11.274 32.031 oh 896 TIP3_896   -0.834
8771 H1 20.072 11.104 31.753 ho 896 TIP3_896    0.417
8772 H2 19.274 11.783 32.822 ho 896 TIP3_896    0.417
8773 OH2 9.405 17.317 32.391 oh 897 TIP3_897   -0.834
8774 H1 9.355 16.812 31.537 ho 897 TIP3_897    0.417
8775 H2 10.026 16.784 32.953 ho 897 TIP3_897    0.417
8776 OH2 14.542 19.863 21.835 oh 898 TIP3_898   -0.834
8777 H1 14.955 19.297 22.504 ho 898 TIP3_898    0.417
8778 H2 14.800 19.439 20.972 ho 898 TIP3_898    0.417
8779 OH2 2.886 20.757 29.117 oh 899 TIP3_899   -0.834
8780 H1 2.458 20.755 29.990 ho 899 TIP3_899    0.417
8781 H2 3.739 21.156 29.295 ho 899 TIP3_899    0.417
8782 OH2 18.962 16.682 37.368 oh 900 TIP3_900   -0.834
8783 H1 18.967 16.777 38.343 ho 900 TIP3_900    0.417
8784 H2 18.018 16.811 37.104 ho 900 TIP3_900    0.417
8785 OH2 10.551 20.059 34.493 oh 901 TIP3_901   -0.834
8786 H1 9.888 19.910 35.144 ho 901 TIP3_901    0.417
8787 H2 9.991 20.042 33.664 ho 901 TIP3_901    0.417
8788 OH2 19.752 18.383 35.239 oh 902 TIP3_902   -0.834
8789 H1 19.595 17.862 36.083 ho 902 TIP3_902    0.417
8790 H2 18.842 18.587 34.956 ho 902 TIP3_902    0.417
8791 OH2 14.317 12.395 38.371 oh 903 TIP3_903   -0.834
8792 H1 14.031 12.760 39.233 ho 903 TIP3_903    0.417
8793 H2 14.054 13.127 37.821 ho 903 TIP3_903    0.417
8794 OH2 15.238 19.509 37.783 oh 904 TIP3_904   -0.834
8795 H1 15.025 19.862 36.848 ho 904 TIP3_904    0.417
8796 H2 15.792 20.246 38.167 ho 904 TIP3_904    0.417
8797 OH2 9.749 4.569 22.698 oh 905 TIP3_905   -0.834
8798 H1 9.467 5.394 23.127 ho 905 TIP3_905    0.417
8799 H2 9.599 4.655 21.726 ho 905 TIP3_905    0.417
8800 OH2 22.358 10.568 27.875 oh 906 TIP3_906   -0.834
8801 H1 21.753 11.260 27.538 ho 906 TIP3_906    0.417
8802 H2 22.746 11.036 28.696 ho 906 TIP3_906    0.417
8803 OH2 22.085 17.765 39.174 oh 907 TIP3_907   -0.834
8804 H1 21.295 17.227 39.484 ho 907 TIP3_907    0.417
8805 H2 21.708 18.617 39.091 ho 907 TIP3_907    0.417
8806 OH2 22.111 1.948 23.807 oh 908 TIP3_908   -0.834
8807 H1 22.607 1.433 24.417 ho 908 TIP3_908    0.417
8808 H2 22.366 1.647 22.939 ho 908 TIP3_908    0.417
8809 OH2 18.776 15.723 25.395 oh 909 TIP3_909   -0.834
8810 H1 17.822 15.587 25.254 ho 909 TIP3_909    0.417
8811 H2 19.114 14.946 24.966 ho 909 TIP3_909    0.417
8812 OH2 22.787 8.471 33.320 oh 910 TIP3_910   -0.834
8813 H1 22.603 7.705 33.892 ho 910 TIP3_910    0.417
8814 H2 23.338 8.989 33.911 ho 910 TIP3_910    0.417
8815 OH2 9.969 11.609 25.934 oh 911 TIP3_911   -0.834
8816 H1 9.822 12.562 26.109 ho 911 TIP3_911    0.417
8817 H2 9.532 11.181 26.650 ho 911 TIP3_911    0.417
8818 OH2 5.420 4.661 25.156 oh 912 TIP3_912   -0.834
8819 H1 5.371 4.862 24.251 ho 912 TIP3_912    0.417
8820 H2 4.683 4.033 25.242 ho 912 TIP3_912    0.417
8821 OH2 13.466 48.022 25.780 oh 913 TIP3_913   -0.834
8822 H1 12.949 48.849 25.733 ho 913 TIP3_913    0.417
8823 H2 12.859 47.522 26.295 ho 913 TIP3_913    0.417
8824 OH2 9.553 43.137 28.514 oh 914 TIP3_914   -0.834
8825 H1 8.885 43.534 27.920 ho 914 TIP3_914    0.417
8826 H2 9.059 42.464 28.994 ho 914 TIP3_914    0.417
8827 OH2 11.685 31.935 35.177 oh 915 TIP3_915   -0.834
8828 H1 10.864 32.419 35.202 ho 915 TIP3_915    0.417
8829 H2 12.340 32.586 35.385 ho 915 TIP3_915    0.417
8830 OH2 4.237 37.339 36.120 oh 916 TIP3_916   -0.834
8831 H1 4.431 38.273 36.098 ho 916 TIP3_916    0.417
8832 H2 5.103 36.948 36.300 ho 916 TIP3_916    0.417
8833 OH2 10.796 47.236 34.780 oh 917 TIP3_917   -0.834
8834 H1 10.374 47.018 33.910 ho 917 TIP3_917    0.417
8835 H2 11.534 47.827 34.518 ho 917 TIP3_917    0.417
8836 OH2 19.695 42.223 39.760 oh 918 TIP3_918   -0.834
8837 H1 20.124 41.461 39.270 ho 918 TIP3_918    0.417
8838 H2 19.484 42.760 39.058 ho 918 TIP3_918    0.417
8839 OH2 11.760 50.257 25.668 oh 919 TIP3_919   -0.834
8840 H1 11.233 50.256 24.816 ho 919 TIP3_919    0.417
8841 H2 11.798 51.209 25.809 ho 919 TIP3_919    0.417
8842 OH2 21.615 52.150 36.657 oh 920 TIP3_920   -0.834
8843 H1 21.567 52.363 35.742 ho 920 TIP3_920    0.417
8844 H2 20.836 51.577 36.781 ho 920 TIP3_920    0.417
8845 OH2 7.277 27.613 23.963 oh 921 TIP3_921   -0.834
8846 H1 7.715 28.137 24.638 ho 921 TIP3_921    0.417
8847 H2 7.954 27.728 23.236 ho 921 TIP3_921    0.417
8848 OH2 22.025 41.537 31.483 oh 922 TIP3_922   -0.834
8849 H1 22.678 42.234 31.615 ho 922 TIP3_922    0.417
8850 H2 21.329 41.892 30.900 ho 922 TIP3_922    0.417
8851 OH2 23.527 33.215 33.170 oh 923 TIP3_923   -0.834
8852 H1 23.696 33.791 33.911 ho 923 TIP3_923    0.417
8853 H2 22.513 33.291 33.024 ho 923 TIP3_923    0.417
8854 OH2 23.052 40.939 34.803 oh 924 TIP3_924   -0.834
8855 H1 23.540 41.427 34.091 ho 924 TIP3_924    0.417
8856 H2 23.736 40.968 35.533 ho 924 TIP3_924    0.417
8857 OH2 19.120 56.803 25.292 oh 925 TIP3_925   -0.834
8858 H1 19.680 57.143 26.053 ho 925 TIP3_925    0.417
8859 H2 19.569 56.074 24.988 ho 925 TIP3_925    0.417
8860 OH2 19.550 49.872 32.115 oh 926 TIP3_926   -0.834
8861 H1 18.572 49.679 32.023 ho 926 TIP3_926    0.417
8862 H2 19.653 50.722 31.681 ho 926 TIP3_926    0.417
8863 OH2 19.769 27.947 20.974 oh 927 TIP3_927   -0.834
8864 H1 20.518 28.340 21.445 ho 927 TIP3_927    0.417
8865 H2 18.952 28.338 21.366 ho 927 TIP3_927    0.417
8866 OH2 21.844 52.163 28.738 oh 928 TIP3_928   -0.834
8867 H1 21.238 52.308 27.978 ho 928 TIP3_928    0.417
8868 H2 21.242 52.343 29.473 ho 928 TIP3_928    0.417
8869 OH2 0.350 49.745 38.854 oh 929 TIP3_929   -0.834
8870 H1 1.202 49.228 38.807 ho 929 TIP3_929    0.417
8871 H2 0.022 49.517 39.730 ho 929 TIP3_929    0.417
8872 OH2 11.089 26.317 22.320 oh 930 TIP3_930   -0.834
8873 H1 12.031 26.518 22.251 ho 930 TIP3_930    0.417
8874 H2 10.990 25.545 22.864 ho 930 TIP3_930    0.417
8875 OH2 20.287 36.012 23.835 oh 931 TIP3_931   -0.834
8876 H1 20.010 35.320 23.218 ho 931 TIP3_931    0.417
8877 H2 19.726 35.805 24.643 ho 931 TIP3_931    0.417
8878 OH2 23.645 54.083 25.619 oh 932 TIP3_932   -0.834
8879 H1 24.092 53.333 25.205 ho 932 TIP3_932    0.417
8880 H2 24.193 54.224 26.370 ho 932 TIP3_932    0.417
8881 OH2 7.013 37.819 27.142 oh 933 TIP3_933   -0.834
8882 H1 7.460 38.520 27.675 ho 933 TIP3_933    0.417
8883 H2 6.701 37.177 27.774 ho 933 TIP3_933    0.417
8884 OH2 10.560 35.853 36.465 oh 934 TIP3_934   -0.834
8885 H1 10.946 35.306 37.175 ho 934 TIP3_934    0.417
8886 H2 10.112 35.135 35.894 ho 934 TIP3_934    0.417
8887 OH2 6.175 31.705 38.008 oh 935 TIP3_935   -0.834
8888 H1 6.233 32.128 37.095 ho 935 TIP3_935    0.417
8889 H2 5.501 30.974 37.809 ho 935 TIP3_935    0.417
8890 OH2 10.922 53.590 30.121 oh 936 TIP3_936   -0.834
8891 H1 10.174 53.530 29.505 ho 936 TIP3_936    0.417
8892 H2 11.526 54.316 29.766 ho 936 TIP3_936    0.417
8893 OH2 8.717 54.411 32.470 oh 937 TIP3_937   -0.834
8894 H1 8.171 54.886 31.822 ho 937 TIP3_937    0.417
8895 H2 9.515 54.289 31.934 ho 937 TIP3_937    0.417
8896 OH2 17.834 39.862 27.627 oh 938 TIP3_938   -0.834
8897 H1 17.239 39.966 28.413 ho 938 TIP3_938    0.417
8898 H2 18.120 38.960 27.774 ho 938 TIP3_938    0.417
8899 OH2 11.528 55.978 25.692 oh 939 TIP3_939   -0.834
8900 H1 11.655 56.907 25.823 ho 939 TIP3_939    0.417
8901 H2 12.409 55.582 25.952 ho 939 TIP3_939    0.417
8902 OH2 9.296 33.464 35.632 oh 940 TIP3_940   -0.834
8903 H1 8.560 33.075 35.074 ho 940 TIP3_940    0.417
8904 H2 9.266 32.909 36.453 ho 940 TIP3_940    0.417
8905 OH2 22.531 28.901 28.587 oh 941 TIP3_941   -0.834
8906 H1 22.663 28.044 29.089 ho 941 TIP3_941    0.417
8907 H2 23.469 29.283 28.491 ho 941 TIP3_941    0.417
8908 OH2 24.099 47.420 26.365 oh 942 TIP3_942   -0.834
8909 H1 23.180 47.100 26.241 ho 942 TIP3_942    0.417
8910 H2 24.606 46.601 26.185 ho 942 TIP3_942    0.417
8911 OH2 1.417 45.249 33.331 oh 943 TIP3_943   -0.834
8912 H1 0.862 45.922 32.961 ho 943 TIP3_943    0.417
8913 H2 2.149 45.907 33.669 ho 943 TIP3_943    0.417
8914 OH2 3.719 55.906 36.940 oh 944 TIP3_944   -0.834
8915 H1 3.395 56.187 37.831 ho 944 TIP3_944    0.417
8916 H2 4.590 56.280 36.794 ho 944 TIP3_944    0.417
8917 OH2 23.641 27.258 22.387 oh 945 TIP3_945   -0.834
8918 H1 23.600 27.949 21.752 ho 945 TIP3_945    0.417
8919 H2 23.621 27.779 23.208 ho 945 TIP3_945    0.417
8920 OH2 6.648 41.238 26.657 oh 946 TIP3_946   -0.834
8921 H1 6.394 42.130 27.049 ho 946 TIP3_946    0.417
8922 H2 5.936 40.643 26.938 ho 946 TIP3_946    0.417
8923 OH2 23.536 42.105 28.084 oh 947 TIP3_947   -0.834
8924 H1 23.064 41.304 28.347 ho 947 TIP3_947    0.417
8925 H2 22.862 42.456 27.464 ho 947 TIP3_947    0.417
8926 OH2 20.421 40.396 34.115 oh 948 TIP3_948   -0.834
8927 H1 21.426 40.515 34.108 ho 948 TIP3_948    0.417
8928 H2 20.172 40.791 34.949 ho 948 TIP3_948    0.417
8929 OH2 20.917 48.369 21.761 oh 949 TIP3_949   -0.834
8930 H1 21.593 47.999 22.409 ho 949 TIP3_949    0.417
8931 H2 20.369 47.589 21.562 ho 949 TIP3_949    0.417
8932 OH2 0.774 39.710 25.613 oh 950 TIP3_950   -0.834
8933 H1 0.356 39.776 24.760 ho 950 TIP3_950    0.417
8934 H2 1.377 38.908 25.445 ho 950 TIP3_950    0.417
8935 OH2 10.370 56.305 34.451 oh 951 TIP3_951   -0.834
8936 H1 10.419 55.340 34.329 ho 951 TIP3_951    0.417
8937 H2 9.481 56.418 34.791 ho 951 TIP3_951    0.417
8938 OH2 23.184 50.754 21.450 oh 952 TIP3_952   -0.834
8939 H1 24.068 50.886 21.195 ho 952 TIP3_952    0.417
8940 H2 22.877 49.978 21.026 ho 952 TIP3_952    0.417
8941 OH2 6.495 45.117 33.950 oh 953 TIP3_953   -0.834
8942 H1 6.284 45.364 33.056 ho 953 TIP3_953    0.417
8943 H2 7.453 45.257 33.964 ho 953 TIP3_953    0.417
8944 OH2 19.163 52.934 30.175 oh 954 TIP3_954   -0.834
8945 H1 18.497 52.575 29.496 ho 954 TIP3_954    0.417
8946 H2 19.067 53.927 30.184 ho 954 TIP3_954    0.417
8947 OH2 18.469 38.378 33.842 oh 955 TIP3_955   -0.834
8948 H1 17.741 38.830 34.203 ho 955 TIP3_955    0.417
8949 H2 19.111 38.992 34.159 ho 955 TIP3_955    0.417
8950 OH2 4.290 29.685 25.689 oh 956 TIP3_956   -0.834
8951 H1 3.676 30.366 25.908 ho 956 TIP3_956    0.417
8952 H2 4.300 29.645 24.760 ho 956 TIP3_956    0.417
8953 OH2 14.925 34.863 25.553 oh 957 TIP3_957   -0.834
8954 H1 14.934 35.810 25.587 ho 957 TIP3_957    0.417
8955 H2 13.975 34.584 25.622 ho 957 TIP3_957    0.417
8956 OH2 5.563 32.994 22.399 oh 958 TIP3_958   -0.834
8957 H1 5.301 32.100 22.195 ho 958 TIP3_958    0.417
8958 H2 6.300 32.863 23.025 ho 958 TIP3_958    0.417
8959 OH2 23.520 30.726 36.937 oh 959 TIP3_959   -0.834
8960 H1 23.791 31.644 37.363 ho 959 TIP3_959    0.417
8961 H2 22.582 30.576 37.127 ho 959 TIP3_959    0.417
8962 OH2 14.062 39.393 32.146 oh 960 TIP3_960   -0.834
8963 H1 13.900 38.597 32.600 ho 960 TIP3_960    0.417
8964 H2 13.341 39.522 31.505 ho 960 TIP3_960    0.417
8965 OH2 15.355 53.996 24.044 oh 961 TIP3_961   -0.834
8966 H1 15.570 53.083 23.857 ho 961 TIP3_961    0.417
8967 H2 14.493 54.079 23.517 ho 961 TIP3_961    0.417
8968 OH2 15.496 53.118 31.023 oh 962 TIP3_962   -0.834
8969 H1 15.856 52.526 30.302 ho 962 TIP3_962    0.417
8970 H2 16.304 53.314 31.567 ho 962 TIP3_962    0.417
8971 OH2 23.857 43.557 30.655 oh 963 TIP3_963   -0.834
8972 H1 23.318 43.983 29.977 ho 963 TIP3_963    0.417
8973 H2 24.516 43.089 30.155 ho 963 TIP3_963    0.417
8974 OH2 15.660 41.659 28.029 oh 964 TIP3_964   -0.834
8975 H1 15.706 42.441 27.570 ho 964 TIP3_964    0.417
8976 H2 15.427 41.971 28.920 ho 964 TIP3_964    0.417
8977 OH2 14.270 50.575 27.976 oh 965 TIP3_965   -0.834
8978 H1 13.738 49.855 27.634 ho 965 TIP3_965    0.417
8979 H2 13.629 51.323 27.804 ho 965 TIP3_965    0.417
8980 OH2 5.797 40.318 32.202 oh 966 TIP3_966   -0.834
8981 H1 6.156 41.048 32.659 ho 966 TIP3_966    0.417
8982 H2 5.134 40.647 31.629 ho 966 TIP3_966    0.417
8983 OH2 0.857 54.295 37.300 oh 967 TIP3_967   -0.834
8984 H1 0.568 54.647 36.436 ho 967 TIP3_967    0.417
8985 H2 1.103 53.399 37.092 ho 967 TIP3_967    0.417
8986 OH2 13.595 26.784 26.664 oh 968 TIP3_968   -0.834
8987 H1 13.500 26.305 25.832 ho 968 TIP3_968    0.417
8988 H2 14.426 27.215 26.460 ho 968 TIP3_968    0.417
8989 OH2 18.009 42.264 25.727 oh 969 TIP3_969   -0.834
8990 H1 17.214 42.780 25.834 ho 969 TIP3_969    0.417
8991 H2 17.767 41.438 26.196 ho 969 TIP3_969    0.417
8992 OH2 4.927 55.188 21.333 oh 970 TIP3_970   -0.834
8993 H1 5.627 55.899 21.261 ho 970 TIP3_970    0.417
8994 H2 5.423 54.418 21.452 ho 970 TIP3_970    0.417
8995 OH2 4.708 40.285 35.892 oh 971 TIP3_971   -0.834
8996 H1 4.576 40.492 36.853 ho 971 TIP3_971    0.417
8997 H2 5.628 40.514 35.773 ho 971 TIP3_971    0.417
8998 OH2 19.591 27.121 32.949 oh 972 TIP3_972   -0.834
8999 H1 19.046 27.294 33.689 ho 972 TIP3_972    0.417
9000 H2 20.176 26.466 33.223 ho 972 TIP3_972    0.417
9001 OH2 13.172 26.589 39.315 oh 973 TIP3_973   -0.834
9002 H1 12.963 27.501 39.372 ho 973 TIP3_973    0.417
9003 H2 12.215 26.236 39.254 ho 973 TIP3_973    0.417
9004 OH2 20.817 42.447 26.622 oh 974 TIP3_974   -0.834
9005 H1 20.985 41.641 26.130 ho 974 TIP3_974    0.417
9006 H2 19.894 42.633 26.587 ho 974 TIP3_974    0.417
9007 OH2 3.010 48.657 38.715 oh 975 TIP3_975   -0.834
9008 H1 3.334 48.472 39.619 ho 975 TIP3_975    0.417
9009 H2 3.782 48.742 38.252 ho 975 TIP3_975    0.417
9010 OH2 11.819 39.720 23.621 oh 976 TIP3_976   -0.834
9011 H1 12.698 39.323 23.518 ho 976 TIP3_976    0.417
9012 H2 11.340 38.925 23.817 ho 976 TIP3_976    0.417
9013 OH2 19.287 39.279 23.194 oh 977 TIP3_977   -0.834
9014 H1 19.570 39.262 22.298 ho 977 TIP3_977    0.417
9015 H2 19.119 38.334 23.368 ho 977 TIP3_977    0.417
9016 OH2 14.392 47.623 36.854 oh 978 TIP3_978   -0.834
9017 H1 15.139 47.544 36.189 ho 978 TIP3_978    0.417
9018 H2 13.891 46.824 36.585 ho 978 TIP3_978    0.417
9019 OH2 9.482 28.489 22.541 oh 979 TIP3_979   -0.834
9020 H1 10.176 27.937 22.435 ho 979 TIP3_979    0.417
9021 H2 9.781 29.068 23.177 ho 979 TIP3_979    0.417
9022 OH2 11.284 38.168 35.368 oh 980 TIP3_980   -0.834
9023 H1 11.271 37.288 35.858 ho 980 TIP3_980    0.417
9024 H2 10.534 38.050 34.716 ho 980 TIP3_980    0.417
9025 OH2 2.308 35.641 37.963 oh 981 TIP3_981   -0.834
9026 H1 2.329 35.284 37.020 ho 981 TIP3_981    0.417
9027 H2 2.336 36.597 37.794 ho 981 TIP3_981    0.417
9028 OH2 20.282 52.297 26.293 oh 982 TIP3_982   -0.834
9029 H1 20.889 52.442 25.481 ho 982 TIP3_982    0.417
9030 H2 19.429 52.639 26.009 ho 982 TIP3_982    0.417
9031 OH2 0.540 55.998 28.752 oh 983 TIP3_983   -0.834
9032 H1 0.672 56.950 28.942 ho 983 TIP3_983    0.417
9033 H2 1.411 55.658 28.959 ho 983 TIP3_983    0.417
9034 OH2 5.789 49.157 37.669 oh 984 TIP3_984   -0.834
9035 H1 5.760 49.783 38.434 ho 984 TIP3_984    0.417
9036 H2 6.472 48.574 38.005 ho 984 TIP3_984    0.417
9037 OH2 1.108 41.061 37.059 oh 985 TIP3_985   -0.834
9038 H1 1.183 41.584 36.227 ho 985 TIP3_985    0.417
9039 H2 1.317 41.684 37.720 ho 985 TIP3_985    0.417
9040 OH2 23.927 32.170 23.999 oh 986 TIP3_986   -0.834
9041 H1 24.374 32.323 24.879 ho 986 TIP3_986    0.417
9042 H2 22.974 32.133 24.207 ho 986 TIP3_986    0.417
9043 OH2 22.684 51.663 32.074 oh 987 TIP3_987   -0.834
9044 H1 23.100 50.773 32.116 ho 987 TIP3_987    0.417
9045 H2 22.102 51.541 31.327 ho 987 TIP3_987    0.417
9046 OH2 18.137 43.655 37.624 oh 988 TIP3_988   -0.834
9047 H1 18.161 43.834 36.608 ho 988 TIP3_988    0.417
9048 H2 18.200 44.495 38.007 ho 988 TIP3_988    0.417
9049 OH2 3.012 30.566 35.008 oh 989 TIP3_989   -0.834
9050 H1 3.394 29.688 35.107 ho 989 TIP3_989    0.417
9051 H2 3.330 30.848 34.132 ho 989 TIP3_989    0.417
9052 OH2 7.733 55.590 34.796 oh 990 TIP3_990   -0.834
9053 H1 7.538 55.142 33.983 ho 990 TIP3_990    0.417
9054 H2 8.111 54.846 35.323 ho 990 TIP3_990    0.417
9055 OH2 0.486 52.293 23.877 oh 991 TIP3_991   -0.834
9056 H1 -0.434 52.264 23.953 ho 991 TIP3_991    0.417
9057 H2 0.609 52.964 23.182 ho 991 TIP3_991    0.417
9058 OH2 23.002 34.470 29.862 oh 992 TIP3_992   -0.834
9059 H1 22.117 34.528 30.220 ho 992 TIP3_992    0.417
9060 H2 23.498 34.837 30.627 ho 992 TIP3_992    0.417
9061 OH2 -0.100 35.904 39.283 oh 993 TIP3_993   -0.834
9062 H1 -0.605 36.011 38.455 ho 993 TIP3_993    0.417
9063 H2 0.838 35.787 39.041 ho 993 TIP3_993    0.417
9064 OH2 12.291 52.648 27.267 oh 994 TIP3_994   -0.834
9065 H1 11.437 53.105 27.367 ho 994 TIP3_994    0.417
9066 H2 12.939 53.329 27.019 ho 994 TIP3_994    0.417
9067 OH2 7.252 28.121 31.149 oh 995 TIP3_995   -0.834
9068 H1 7.352 27.864 32.065 ho 995 TIP3_995    0.417
9069 H2 7.769 27.419 30.695 ho 995 TIP3_995    0.417
9070 OH2 22.105 54.211 34.124 oh 996 TIP3_996   -0.834
9071 H1 21.414 54.452 33.507 ho 996 TIP3_996    0.417
9072 H2 22.788 54.049 33.444 ho 996 TIP3_996    0.417
9073 OH2 2.820 27.473 26.353 oh 997 TIP3_997   -0.834
9074 H1 3.525 28.169 26.307 ho 997 TIP3_997    0.417
9075 H2 2.193 27.999 26.919 ho 997 TIP3_997    0.417
9076 OH2 0.575 41.759 27.362 oh 998 TIP3_998   -0.834
9077 H1 0.444 41.307 28.240 ho 998 TIP3_998    0.417
9078 H2 0.764 40.962 26.774 ho 998 TIP3_998    0.417
9079 OH2 7.704 55.573 26.612 oh 999 TIP3_999   -0.834
9080 H1 7.141 55.374 25.831 ho 999 TIP3_999    0.417
9081 H2 7.294 56.463 26.925 ho 999 TIP3_999    0.417
9082 OH2 13.949 54.719 26.344 oh 1000 TIP3_1000   -0.834
9083 H1 14.477 54.290 25.636 ho 1000 TIP3_1000    0.417
9084 H2 14.699 55.048 27.031 ho 1000 TIP3_1000    0.417
9085 OH2 5.667 30.002 33.309 oh 1001 TIP3_1001   -0.834
9086 H1 5.007 30.652 32.978 ho 1001 TIP3_1001    0.417
9087 H2 6.404 30.130 32.665 ho 1001 TIP3_1001    0.417
9088 OH2 2.034 38.570 37.991 oh 1002 TIP3_1002   -0.834
9089 H1 1.603 38.392 38.870 ho 1002 TIP3_1002    0.417
9090 H2 2.165 39.547 37.977 ho 1002 TIP3_1002    0.417
9091 OH2 17.928 53.077 32.448 oh 1003 TIP3_1003   -0.834
9092 H1 18.414 52.842 31.601 ho 1003 TIP3_1003    0.417
9093 H2 18.419 53.887 32.820 ho 1003 TIP3_1003    0.417
9094 OH2 19.644 34.709 28.603 oh 1004 TIP3_1004   -0.834
9095 H1 20.123 34.698 29.473 ho 1004 TIP3_1004    0.417
9096 H2 19.788 33.748 28.276 ho 1004 TIP3_1004    0.417
9097 OH2 4.377 50.747 25.106 oh 1005 TIP3_1005   -0.834
9098 H1 4.906 50.228 25.713 ho 1005 TIP3_1005    0.417
9099 H2 3.873 51.330 25.751 ho 1005 TIP3_1005    0.417
9100 OH2 11.114 53.527 34.890 oh 1006 TIP3_1006   -0.834
9101 H1 11.585 53.342 35.701 ho 1006 TIP3_1006    0.417
9102 H2 11.687 53.403 34.144 ho 1006 TIP3_1006    0.417
9103 OH2 12.233 45.009 32.602 oh 1007 TIP3_1007   -0.834
9104 H1 12.096 44.390 31.927 ho 1007 TIP3_1007    0.417
9105 H2 12.966 44.659 33.149 ho 1007 TIP3_1007    0.417
9106 OH2 4.384 41.509 21.538 oh 1008 TIP3_1008   -0.834
9107 H1 3.413 41.709 21.675 ho 1008 TIP3_1008    0.417
9108 H2 4.767 41.360 22.397 ho 1008 TIP3_1008    0.417
9109 OH2 22.230 39.331 27.504 oh 1009 TIP3_1009   -0.834
9110 H1 22.419 39.712 26.635 ho 1009 TIP3_1009    0.417
9111 H2 22.975 38.689 27.719 ho 1009 TIP3_1009    0.417
9112 OH2 22.071 26.524 30.115 oh 1010 TIP3_1010   -0.834
9113 H1 21.259 26.016 30.281 ho 1010 TIP3_1010    0.417
9114 H2 22.251 27.001 30.953 ho 1010 TIP3_1010    0.417
9115 OH2 21.656 27.877 25.818 oh 1011 TIP3_1011   -0.834
9116 H1 21.772 28.489 25.093 ho 1011 TIP3_1011    0.417
9117 H2 22.184 28.243 26.524 ho 1011 TIP3_1011    0.417
9118 OH2 13.064 45.344 36.076 oh 1012 TIP3_1012   -0.834
9119 H1 13.211 44.482 36.511 ho 1012 TIP3_1012    0.417
9120 H2 12.319 45.197 35.393 ho 1012 TIP3_1012    0.417
9121 OH2 7.671 32.092 24.226 oh 1013 TIP3_1013   -0.834
9122 H1 8.471 32.491 23.787 ho 1013 TIP3_1013    0.417
9123 H2 7.985 31.262 24.550 ho 1013 TIP3_1013    0.417
9124 OH2 12.038 32.244 27.101 oh 1014 TIP3_1014   -0.834
9125 H1 11.056 32.286 27.276 ho 1014 TIP3_1014    0.417
9126 H2 12.432 31.701 27.865 ho 1014 TIP3_1014    0.417
9127 OH2 14.678 25.362 28.908 oh 1015 TIP3_1015   -0.834
9128 H1 13.916 25.328 28.303 ho 1015 TIP3_1015    0.417
9129 H2 14.424 25.936 29.651 ho 1015 TIP3_1015    0.417
9130 OH2 22.378 45.244 33.602 oh 1016 TIP3_1016   -0.834
9131 H1 21.880 45.467 34.433 ho 1016 TIP3_1016    0.417
9132 H2 22.500 44.291 33.671 ho 1016 TIP3_1016    0.417
9133 OH2 17.466 36.758 24.448 oh 1017 TIP3_1017   -0.834
9134 H1 17.964 36.138 25.004 ho 1017 TIP3_1017    0.417
9135 H2 16.768 37.107 24.972 ho 1017 TIP3_1017    0.417
9136 OH2 18.422 49.462 37.638 oh 1018 TIP3_1018   -0.834
9137 H1 19.342 49.448 37.774 ho 1018 TIP3_1018    0.417
9138 H2 18.279 48.690 37.048 ho 1018 TIP3_1018    0.417
9139 OH2 14.400 39.405 29.079 oh 1019 TIP3_1019   -0.834
9140 H1 14.798 40.307 29.244 ho 1019 TIP3_1019    0.417
9141 H2 15.078 38.901 29.523 ho 1019 TIP3_1019    0.417
9142 OH2 0.815 55.983 34.676 oh 1020 TIP3_1020   -0.834
9143 H1 1.628 56.032 34.148 ho 1020 TIP3_1020    0.417
9144 H2 0.220 55.934 33.893 ho 1020 TIP3_1020    0.417
9145 OH2 4.361 51.115 30.731 oh 1021 TIP3_1021   -0.834
9146 H1 5.188 50.555 30.863 ho 1021 TIP3_1021    0.417
9147 H2 4.590 51.982 31.196 ho 1021 TIP3_1021    0.417
9148 OH2 8.724 51.470 36.793 oh 1022 TIP3_1022   -0.834
9149 H1 8.880 50.569 36.444 ho 1022 TIP3_1022    0.417
9150 H2 8.190 51.279 37.588 ho 1022 TIP3_1022    0.417
9151 OH2 8.741 43.708 24.696 oh 1023 TIP3_1023   -0.834
9152 H1 9.578 43.397 24.310 ho 1023 TIP3_1023    0.417
9153 H2 8.216 43.936 23.919 ho 1023 TIP3_1023    0.417
9154 OH2 20.576 34.333 31.363 oh 1024 TIP3_1024   -0.834
9155 H1 20.461 35.275 31.441 ho 1024 TIP3_1024    0.417
9156 H2 19.983 33.996 32.035 ho 1024 TIP3_1024    0.417
9157 OH2 12.616 47.220 31.003 oh 1025 TIP3_1025   -0.834
9158 H1 13.165 46.700 30.502 ho 1025 TIP3_1025    0.417
9159 H2 11.925 46.607 31.253 ho 1025 TIP3_1025    0.417
9160 OH2 20.902 46.787 31.498 oh 1026 TIP3_1026   -0.834
9161 H1 21.654 46.561 32.086 ho 1026 TIP3_1026    0.417
9162 H2 20.903 46.072 30.889 ho 1026 TIP3_1026    0.417
9163 OH2 11.512 32.362 30.778 oh 1027 TIP3_1027   -0.834
9164 H1 12.156 32.224 30.008 ho 1027 TIP3_1027    0.417
9165 H2 11.664 31.646 31.383 ho 1027 TIP3_1027    0.417
9166 OH2 8.974 47.808 27.591 oh 1028 TIP3_1028   -0.834
9167 H1 9.889 48.172 27.540 ho 1028 TIP3_1028    0.417
9168 H2 8.813 47.805 28.530 ho 1028 TIP3_1028    0.417
9169 OH2 19.741 36.954 31.475 oh 1029 TIP3_1029   -0.834
9170 H1 20.029 37.481 30.700 ho 1029 TIP3_1029    0.417
9171 H2 19.135 37.600 31.829 ho 1029 TIP3_1029    0.417
9172 OH2 8.465 32.502 32.539 oh 1030 TIP3_1030   -0.834
9173 H1 8.340 32.129 31.612 ho 1030 TIP3_1030    0.417
9174 H2 8.740 31.733 33.095 ho 1030 TIP3_1030    0.417
9175 OH2 0.331 34.880 29.799 oh 1031 TIP3_1031   -0.834
9176 H1 0.003 34.412 28.972 ho 1031 TIP3_1031    0.417
9177 H2 0.326 34.139 30.463 ho 1031 TIP3_1031    0.417
9178 OH2 22.206 54.973 29.927 oh 1032 TIP3_1032   -0.834
9179 H1 21.785 55.445 29.191 ho 1032 TIP3_1032    0.417
9180 H2 22.644 54.219 29.497 ho 1032 TIP3_1032    0.417
9181 OH2 5.470 43.711 29.184 oh 1033 TIP3_1033   -0.834
9182 H1 6.181 43.454 28.630 ho 1033 TIP3_1033    0.417
9183 H2 4.687 43.721 28.654 ho 1033 TIP3_1033    0.417
9184 OH2 13.710 33.810 35.944 oh 1034 TIP3_1034   -0.834
9185 H1 14.285 34.565 35.997 ho 1034 TIP3_1034    0.417
9186 H2 14.249 33.054 35.842 ho 1034 TIP3_1034    0.417
9187 OH2 14.898 56.119 30.452 oh 1035 TIP3_1035   -0.834
9188 H1 14.980 55.186 30.163 ho 1035 TIP3_1035    0.417
9189 H2 15.301 56.228 31.316 ho 1035 TIP3_1035    0.417
9190 OH2 2.117 38.404 32.545 oh 1036 TIP3_1036   -0.834
9191 H1 2.014 38.342 33.499 ho 1036 TIP3_1036    0.417
9192 H2 2.894 37.873 32.356 ho 1036 TIP3_1036    0.417
9193 OH2 23.756 33.278 39.112 oh 1037 TIP3_1037   -0.834
9194 H1 22.892 33.439 38.657 ho 1037 TIP3_1037    0.417
9195 H2 24.200 34.174 39.152 ho 1037 TIP3_1037    0.417
9196 OH2 11.521 43.147 26.531 oh 1038 TIP3_1038   -0.834
9197 H1 11.496 44.085 26.521 ho 1038 TIP3_1038    0.417
9198 H2 10.815 42.917 27.087 ho 1038 TIP3_1038    0.417
9199 OH2 6.985 29.799 26.724 oh 1039 TIP3_1039   -0.834
9200 H1 6.753 29.883 27.691 ho 1039 TIP3_1039    0.417
9201 H2 6.077 29.788 26.268 ho 1039 TIP3_1039    0.417
9202 OH2 15.096 44.842 23.691 oh 1040 TIP3_1040   -0.834
9203 H1 15.217 45.669 24.173 ho 1040 TIP3_1040    0.417
9204 H2 15.202 45.074 22.753 ho 1040 TIP3_1040    0.417
9205 OH2 2.812 53.345 25.581 oh 1041 TIP3_1041   -0.834
9206 H1 2.514 53.912 26.283 ho 1041 TIP3_1041    0.417
9207 H2 2.060 53.370 24.960 ho 1041 TIP3_1041    0.417
9208 OH2 14.120 55.964 33.536 oh 1042 TIP3_1042   -0.834
9209 H1 14.066 56.439 34.433 ho 1042 TIP3_1042    0.417
9210 H2 13.534 56.537 33.024 ho 1042 TIP3_1042    0.417
9211 OH2 22.262 56.754 35.390 oh 1043 TIP3_1043   -0.834
9212 H1 22.651 56.562 36.241 ho 1043 TIP3_1043    0.417
9213 H2 22.228 55.938 35.004 ho 1043 TIP3_1043    0.417
9214 OH2 7.627 45.031 36.376 oh 1044 TIP3_1044   -0.834
9215 H1 6.932 44.983 35.654 ho 1044 TIP3_1044    0.417
9216 H2 7.516 44.179 36.883 ho 1044 TIP3_1044    0.417
9217 OH2 23.411 28.235 35.208 oh 1045 TIP3_1045   -0.834
9218 H1 23.908 27.368 35.246 ho 1045 TIP3_1045    0.417
9219 H2 23.912 28.832 35.777 ho 1045 TIP3_1045    0.417
9220 OH2 16.551 35.805 38.131 oh 1046 TIP3_1046   -0.834
9221 H1 16.201 36.461 38.803 ho 1046 TIP3_1046    0.417
9222 H2 17.194 35.336 38.648 ho 1046 TIP3_1046    0.417
9223 OH2 21.749 51.837 39.618 oh 1047 TIP3_1047   -0.834
9224 H1 20.874 52.095 39.278 ho 1047 TIP3_1047    0.417
9225 H2 22.348 52.146 38.880 ho 1047 TIP3_1047    0.417
9226 OH2 18.464 48.685 24.102 oh 1048 TIP3_1048   -0.834
9227 H1 18.815 49.509 23.776 ho 1048 TIP3_1048    0.417
9228 H2 17.702 48.543 23.539 ho 1048 TIP3_1048    0.417
9229 OH2 0.504 34.425 25.183 oh 1049 TIP3_1049   -0.834
9230 H1 -0.213 33.833 24.906 ho 1049 TIP3_1049    0.417
9231 H2 1.279 34.063 24.714 ho 1049 TIP3_1049    0.417
9232 OH2 23.900 49.191 31.635 oh 1050 TIP3_1050   -0.834
9233 H1 24.797 49.348 31.383 ho 1050 TIP3_1050    0.417
9234 H2 23.912 48.287 32.071 ho 1050 TIP3_1050    0.417
9235 OH2 10.566 37.561 24.611 oh 1051 TIP3_1051   -0.834
9236 H1 9.693 37.961 24.615 ho 1051 TIP3_1051    0.417
9237 H2 10.482 36.689 25.020 ho 1051 TIP3_1051    0.417
9238 OH2 24.124 31.552 28.028 oh 1052 TIP3_1052   -0.834
9239 H1 24.762 31.637 28.703 ho 1052 TIP3_1052    0.417
9240 H2 24.436 30.821 27.456 ho 1052 TIP3_1052    0.417
9241 OH2 7.370 44.003 27.244 oh 1053 TIP3_1053   -0.834
9242 H1 7.660 43.773 26.296 ho 1053 TIP3_1053    0.417
9243 H2 6.974 44.909 27.144 ho 1053 TIP3_1053    0.417
9244 OH2 19.554 46.035 24.602 oh 1054 TIP3_1054   -0.834
9245 H1 19.774 46.277 23.738 ho 1054 TIP3_1054    0.417
9246 H2 18.936 46.659 24.949 ho 1054 TIP3_1054    0.417
9247 OH2 4.773 34.625 35.184 oh 1055 TIP3_1055   -0.834
9248 H1 4.262 34.254 35.894 ho 1055 TIP3_1055    0.417
9249 H2 4.260 35.441 34.996 ho 1055 TIP3_1055    0.417
9250 OH2 16.039 54.633 28.091 oh 1056 TIP3_1056   -0.834
9251 H1 15.909 53.804 28.578 ho 1056 TIP3_1056    0.417
9252 H2 16.994 54.671 28.148 ho 1056 TIP3_1056    0.417
9253 OH2 2.724 46.271 22.300 oh 1057 TIP3_1057   -0.834
9254 H1 3.560 46.626 21.890 ho 1057 TIP3_1057    0.417
9255 H2 2.072 46.351 21.536 ho 1057 TIP3_1057    0.417
9256 OH2 20.669 30.537 36.688 oh 1058 TIP3_1058   -0.834
9257 H1 20.855 29.631 36.390 ho 1058 TIP3_1058    0.417
9258 H2 20.089 30.792 35.993 ho 1058 TIP3_1058    0.417
9259 OH2 23.504 49.430 24.650 oh 1059 TIP3_1059   -0.834
9260 H1 24.107 48.840 25.119 ho 1059 TIP3_1059    0.417
9261 H2 23.295 48.800 23.967 ho 1059 TIP3_1059    0.417
9262 OH2 20.805 44.479 29.955 oh 1060 TIP3_1060   -0.834
9263 H1 20.581 43.552 29.781 ho 1060 TIP3_1060    0.417
9264 H2 20.065 44.931 29.497 ho 1060 TIP3_1060    0.417
9265 OH2 23.476 45.814 28.932 oh 1061 TIP3_1061   -0.834
9266 H1 24.166 45.524 28.295 ho 1061 TIP3_1061    0.417
9267 H2 22.748 46.050 28.361 ho 1061 TIP3_1061    0.417
9268 OH2 5.990 49.095 31.545 oh 1062 TIP3_1062   -0.834
9269 H1 5.920 48.621 32.426 ho 1062 TIP3_1062    0.417
9270 H2 6.910 48.868 31.305 ho 1062 TIP3_1062    0.417
9271 OH2 4.625 35.578 23.393 oh 1063 TIP3_1063   -0.834
9272 H1 4.894 36.060 22.563 ho 1063 TIP3_1063    0.417
9273 H2 4.941 34.677 23.153 ho 1063 TIP3_1063    0.417
9274 OH2 7.231 55.996 39.128 oh 1064 TIP3_1064   -0.834
9275 H1 6.331 56.344 39.299 ho 1064 TIP3_1064    0.417
9276 H2 7.051 55.275 38.476 ho 1064 TIP3_1064    0.417
9277 OH2 11.626 45.950 27.205 oh 1065 TIP3_1065   -0.834
9278 H1 11.391 46.874 27.531 ho 1065 TIP3_1065    0.417
9279 H2 12.091 45.565 28.005 ho 1065 TIP3_1065    0.417
9280 OH2 17.114 35.684 34.551 oh 1066 TIP3_1066   -0.834
9281 H1 17.347 36.584 34.238 ho 1066 TIP3_1066    0.417
9282 H2 16.198 35.692 34.909 ho 1066 TIP3_1066    0.417
9283 OH2 23.054 28.222 32.243 oh 1067 TIP3_1067   -0.834
9284 H1 23.373 29.153 32.102 ho 1067 TIP3_1067    0.417
9285 H2 23.381 27.961 33.078 ho 1067 TIP3_1067    0.417
9286 OH2 16.260 36.941 21.894 oh 1068 TIP3_1068   -0.834
9287 H1 16.468 37.886 21.694 ho 1068 TIP3_1068    0.417
9288 H2 16.775 36.703 22.710 ho 1068 TIP3_1068    0.417
9289 OH2 0.851 30.489 24.633 oh 1069 TIP3_1069   -0.834
9290 H1 1.574 31.173 24.614 ho 1069 TIP3_1069    0.417
9291 H2 0.682 30.288 25.553 ho 1069 TIP3_1069    0.417
9292 OH2 0.571 49.939 21.604 oh 1070 TIP3_1070   -0.834
9293 H1 1.307 49.873 22.283 ho 1070 TIP3_1070    0.417
9294 H2 -0.152 49.566 22.105 ho 1070 TIP3_1070    0.417
9295 OH2 7.159 29.987 21.643 oh 1071 TIP3_1071   -0.834
9296 H1 7.926 29.591 22.116 ho 1071 TIP3_1071    0.417
9297 H2 6.981 29.351 20.930 ho 1071 TIP3_1071    0.417
9298 OH2 15.124 29.608 22.647 oh 1072 TIP3_1072   -0.834
9299 H1 14.471 29.612 21.978 ho 1072 TIP3_1072    0.417
9300 H2 15.009 30.494 23.058 ho 1072 TIP3_1072    0.417
9301 OH2 16.031 56.439 35.627 oh 1073 TIP3_1073   -0.834
9302 H1 15.481 57.201 35.298 ho 1073 TIP3_1073    0.417
9303 H2 16.584 56.851 36.333 ho 1073 TIP3_1073    0.417
9304 OH2 8.776 49.452 31.023 oh 1074 TIP3_1074   -0.834
9305 H1 9.121 49.657 30.105 ho 1074 TIP3_1074    0.417
9306 H2 8.743 50.307 31.475 ho 1074 TIP3_1074    0.417
9307 OH2 4.435 53.189 36.907 oh 1075 TIP3_1075   -0.834
9308 H1 4.147 54.086 36.855 ho 1075 TIP3_1075    0.417
9309 H2 4.190 52.885 37.807 ho 1075 TIP3_1075    0.417
9310 OH2 1.690 38.147 35.297 oh 1076 TIP3_1076   -0.834
9311 H1 2.483 37.578 35.548 ho 1076 TIP3_1076    0.417
9312 H2 1.446 38.531 36.239 ho 1076 TIP3_1076    0.417
9313 OH2 16.187 33.752 21.426 oh 1077 TIP3_1077   -0.834
9314 H1 15.408 33.350 21.039 ho 1077 TIP3_1077    0.417
9315 H2 15.944 34.719 21.484 ho 1077 TIP3_1077    0.417
9316 OH2 23.325 38.398 31.949 oh 1078 TIP3_1078   -0.834
9317 H1 22.879 38.081 32.766 ho 1078 TIP3_1078    0.417
9318 H2 22.620 38.913 31.597 ho 1078 TIP3_1078    0.417
9319 OH2 16.040 48.939 39.271 oh 1079 TIP3_1079   -0.834
9320 H1 16.826 49.225 38.769 ho 1079 TIP3_1079    0.417
9321 H2 15.476 48.629 38.544 ho 1079 TIP3_1079    0.417
9322 OH2 16.163 30.437 29.622 oh 1080 TIP3_1080   -0.834
9323 H1 15.576 30.419 30.420 ho 1080 TIP3_1080    0.417
9324 H2 16.415 29.437 29.613 ho 1080 TIP3_1080    0.417
9325 OH2 4.462 46.024 35.771 oh 1081 TIP3_1081   -0.834
9326 H1 4.814 45.763 34.923 ho 1081 TIP3_1081    0.417
9327 H2 4.452 45.119 36.178 ho 1081 TIP3_1081    0.417
9328 OH2 11.067 26.201 27.767 oh 1082 TIP3_1082   -0.834
9329 H1 10.519 26.360 26.946 ho 1082 TIP3_1082    0.417
9330 H2 11.916 26.499 27.483 ho 1082 TIP3_1082    0.417
9331 OH2 9.571 46.488 22.730 oh 1083 TIP3_1083   -0.834
9332 H1 8.729 46.270 22.314 ho 1083 TIP3_1083    0.417
9333 H2 9.246 46.712 23.616 ho 1083 TIP3_1083    0.417
9334 OH2 6.156 49.433 26.537 oh 1084 TIP3_1084   -0.834
9335 H1 5.846 49.181 27.421 ho 1084 TIP3_1084    0.417
9336 H2 6.896 48.831 26.497 ho 1084 TIP3_1084    0.417
9337 OH2 11.912 44.780 22.853 oh 1085 TIP3_1085   -0.834
9338 H1 12.386 45.161 23.612 ho 1085 TIP3_1085    0.417
9339 H2 11.221 45.402 22.625 ho 1085 TIP3_1085    0.417
9340 OH2 6.408 52.285 35.079 oh 1086 TIP3_1086   -0.834
9341 H1 6.908 51.745 35.611 ho 1086 TIP3_1086    0.417
9342 H2 5.631 52.638 35.590 ho 1086 TIP3_1086    0.417
9343 OH2 6.374 45.383 31.023 oh 1087 TIP3_1087   -0.834
9344 H1 5.606 45.894 31.156 ho 1087 TIP3_1087    0.417
9345 H2 6.018 44.696 30.375 ho 1087 TIP3_1087    0.417
9346 OH2 23.099 36.503 38.562 oh 1088 TIP3_1088   -0.834
9347 H1 23.120 37.285 37.973 ho 1088 TIP3_1088    0.417
9348 H2 23.742 35.862 38.213 ho 1088 TIP3_1088    0.417
9349 OH2 17.850 30.159 27.267 oh 1089 TIP3_1089   -0.834
9350 H1 17.246 30.715 27.883 ho 1089 TIP3_1089    0.417
9351 H2 18.719 30.376 27.698 ho 1089 TIP3_1089    0.417
9352 OH2 19.320 39.976 31.269 oh 1090 TIP3_1090   -0.834
9353 H1 19.805 39.526 30.543 ho 1090 TIP3_1090    0.417
9354 H2 19.880 39.941 32.028 ho 1090 TIP3_1090    0.417
9355 OH2 9.708 34.860 33.160 oh 1091 TIP3_1091   -0.834
9356 H1 9.416 33.967 33.243 ho 1091 TIP3_1091    0.417
9357 H2 9.188 35.165 32.421 ho 1091 TIP3_1091    0.417
9358 OH2 7.954 47.392 24.958 oh 1092 TIP3_1092   -0.834
9359 H1 7.148 46.957 25.237 ho 1092 TIP3_1092    0.417
9360 H2 8.472 47.416 25.841 ho 1092 TIP3_1092    0.417
9361 OH2 5.495 43.783 23.695 oh 1093 TIP3_1093   -0.834
9362 H1 5.948 44.031 22.890 ho 1093 TIP3_1093    0.417
9363 H2 4.986 44.553 23.920 ho 1093 TIP3_1093    0.417
9364 OH2 19.103 55.304 33.775 oh 1094 TIP3_1094   -0.834
9365 H1 18.739 55.358 34.667 ho 1094 TIP3_1094    0.417
9366 H2 19.649 56.059 33.700 ho 1094 TIP3_1094    0.417
9367 OH2 18.680 34.944 26.047 oh 1095 TIP3_1095   -0.834
9368 H1 18.177 34.231 25.739 ho 1095 TIP3_1095    0.417
9369 H2 18.964 34.576 26.936 ho 1095 TIP3_1095    0.417
9370 OH2 3.603 50.046 34.175 oh 1096 TIP3_1096   -0.834
9371 H1 3.196 50.721 34.770 ho 1096 TIP3_1096    0.417
9372 H2 3.345 50.319 33.315 ho 1096 TIP3_1096    0.417
9373 OH2 22.601 46.430 38.380 oh 1097 TIP3_1097   -0.834
9374 H1 22.867 47.343 38.425 ho 1097 TIP3_1097    0.417
9375 H2 22.343 46.271 37.465 ho 1097 TIP3_1097    0.417
9376 OH2 11.934 26.622 33.253 oh 1098 TIP3_1098   -0.834
9377 H1 11.171 26.251 32.799 ho 1098 TIP3_1098    0.417
9378 H2 11.578 27.041 34.059 ho 1098 TIP3_1098    0.417
9379 OH2 4.991 53.121 32.651 oh 1099 TIP3_1099   -0.834
9380 H1 4.530 53.721 33.258 ho 1099 TIP3_1099    0.417
9381 H2 5.596 52.688 33.289 ho 1099 TIP3_1099    0.417
9382 OH2 1.353 46.381 29.859 oh 1100 TIP3_1100   -0.834
9383 H1 0.914 45.546 29.691 ho 1100 TIP3_1100    0.417
9384 H2 0.689 46.985 30.272 ho 1100 TIP3_1100    0.417
9385 OH2 7.412 49.454 23.303 oh 1101 TIP3_1101   -0.834
9386 H1 7.026 49.929 23.997 ho 1101 TIP3_1101    0.417
9387 H2 7.977 48.764 23.822 ho 1101 TIP3_1101    0.417
9388 OH2 8.985 37.320 34.386 oh 1102 TIP3_1102   -0.834
9389 H1 8.589 37.061 35.238 ho 1102 TIP3_1102    0.417
9390 H2 9.317 36.508 33.950 ho 1102 TIP3_1102    0.417
9391 OH2 8.966 30.572 30.144 oh 1103 TIP3_1103   -0.834
9392 H1 9.760 30.409 29.623 ho 1103 TIP3_1103    0.417
9393 H2 8.593 29.674 30.459 ho 1103 TIP3_1103    0.417
9394 OH2 11.588 43.237 30.725 oh 1104 TIP3_1104   -0.834
9395 H1 11.139 43.403 29.899 ho 1104 TIP3_1104    0.417
9396 H2 11.515 42.279 30.784 ho 1104 TIP3_1104    0.417
9397 OH2 3.897 43.514 36.571 oh 1105 TIP3_1105   -0.834
9398 H1 3.880 43.068 37.418 ho 1105 TIP3_1105    0.417
9399 H2 2.887 43.677 36.438 ho 1105 TIP3_1105    0.417
9400 OH2 4.648 26.548 24.562 oh 1106 TIP3_1106   -0.834
9401 H1 3.771 26.936 24.936 ho 1106 TIP3_1106    0.417
9402 H2 5.201 27.328 24.396 ho 1106 TIP3_1106    0.417
9403 OH2 5.332 29.692 29.468 oh 1107 TIP3_1107   -0.834
9404 H1 5.893 28.940 29.816 ho 1107 TIP3_1107    0.417
9405 H2 4.553 29.824 30.051 ho 1107 TIP3_1107    0.417
9406 OH2 18.963 50.606 28.075 oh 1108 TIP3_1108   -0.834
9407 H1 19.761 50.198 28.407 ho 1108 TIP3_1108    0.417
9408 H2 19.347 51.250 27.410 ho 1108 TIP3_1108    0.417
9409 OH2 8.503 26.165 29.742 oh 1109 TIP3_1109   -0.834
9410 H1 7.690 25.715 29.469 ho 1109 TIP3_1109    0.417
9411 H2 9.005 25.981 28.933 ho 1109 TIP3_1109    0.417
9412 OH2 17.863 48.158 26.808 oh 1110 TIP3_1110   -0.834
9413 H1 18.052 48.136 25.882 ho 1110 TIP3_1110    0.417
9414 H2 18.197 49.078 27.010 ho 1110 TIP3_1110    0.417
9415 OH2 4.673 29.974 23.006 oh 1111 TIP3_1111   -0.834
9416 H1 5.522 30.043 22.567 ho 1111 TIP3_1111    0.417
9417 H2 4.185 29.309 22.460 ho 1111 TIP3_1111    0.417
9418 OH2 7.773 27.259 38.057 oh 1112 TIP3_1112   -0.834
9419 H1 7.793 26.467 38.629 ho 1112 TIP3_1112    0.417
9420 H2 7.105 27.013 37.410 ho 1112 TIP3_1112    0.417
9421 OH2 13.720 25.915 35.378 oh 1113 TIP3_1113   -0.834
9422 H1 13.543 26.255 34.480 ho 1113 TIP3_1113    0.417
9423 H2 14.041 26.665 35.867 ho 1113 TIP3_1113    0.417
9424 OH2 3.287 54.686 34.390 oh 1114 TIP3_1114   -0.834
9425 H1 3.048 54.997 35.289 ho 1114 TIP3_1114    0.417
9426 H2 2.596 53.964 34.319 ho 1114 TIP3_1114    0.417
9427 OH2 23.034 35.417 35.062 oh 1115 TIP3_1115   -0.834
9428 H1 22.117 35.549 35.444 ho 1115 TIP3_1115    0.417
9429 H2 23.342 36.248 34.724 ho 1115 TIP3_1115    0.417
9430 OH2 10.573 45.568 37.819 oh 1116 TIP3_1116   -0.834
9431 H1 10.495 44.909 37.108 ho 1116 TIP3_1116    0.417
9432 H2 11.536 45.645 37.919 ho 1116 TIP3_1116    0.417
9433 OH2 1.897 37.094 26.099 oh 1117 TIP3_1117   -0.834
9434 H1 1.514 36.280 25.724 ho 1117 TIP3_1117    0.417
9435 H2 2.875 36.927 25.973 ho 1117 TIP3_1117    0.417
9436 OH2 19.075 52.059 39.130 oh 1118 TIP3_1118   -0.834
9437 H1 18.552 51.941 39.979 ho 1118 TIP3_1118    0.417
9438 H2 18.423 52.118 38.386 ho 1118 TIP3_1118    0.417
9439 OH2 7.300 55.502 30.496 oh 1119 TIP3_1119   -0.834
9440 H1 7.005 55.159 29.677 ho 1119 TIP3_1119    0.417
9441 H2 6.914 56.375 30.602 ho 1119 TIP3_1119    0.417
9442 OH2 17.953 26.158 23.962 oh 1120 TIP3_1120   -0.834
9443 H1 17.145 26.642 24.210 ho 1120 TIP3_1120    0.417
9444 H2 18.568 26.300 24.736 ho 1120 TIP3_1120    0.417
9445 OH2 19.346 57.312 37.358 oh 1121 TIP3_1121   -0.834
9446 H1 18.408 57.598 37.408 ho 1121 TIP3_1121    0.417
9447 H2 19.277 56.345 37.295 ho 1121 TIP3_1121    0.417
9448 OH2 22.367 55.772 38.016 oh 1122 TIP3_1122   -0.834
9449 H1 21.542 55.491 38.489 ho 1122 TIP3_1122    0.417
9450 H2 22.968 55.144 38.324 ho 1122 TIP3_1122    0.417
9451 OH2 20.211 30.328 29.164 oh 1123 TIP3_1123   -0.834
9452 H1 20.015 29.994 30.055 ho 1123 TIP3_1123    0.417
9453 H2 20.796 29.600 28.844 ho 1123 TIP3_1123    0.417
9454 OH2 0.596 31.733 35.751 oh 1124 TIP3_1124   -0.834
9455 H1 1.356 31.141 35.514 ho 1124 TIP3_1124    0.417
9456 H2 0.494 31.551 36.711 ho 1124 TIP3_1124    0.417
9457 OH2 14.431 32.697 33.220 oh 1125 TIP3_1125   -0.834
9458 H1 15.097 32.947 32.579 ho 1125 TIP3_1125    0.417
9459 H2 13.693 33.335 33.113 ho 1125 TIP3_1125    0.417
9460 OH2 1.844 48.498 27.398 oh 1126 TIP3_1126   -0.834
9461 H1 1.643 49.419 27.557 ho 1126 TIP3_1126    0.417
9462 H2 1.537 48.018 28.206 ho 1126 TIP3_1126    0.417
9463 OH2 14.527 51.045 34.052 oh 1127 TIP3_1127   -0.834
9464 H1 13.938 50.260 34.038 ho 1127 TIP3_1127    0.417
9465 H2 14.052 51.684 33.522 ho 1127 TIP3_1127    0.417
9466 OH2 1.162 34.527 35.476 oh 1128 TIP3_1128   -0.834
9467 H1 0.979 33.633 35.754 ho 1128 TIP3_1128    0.417
9468 H2 0.294 35.023 35.701 ho 1128 TIP3_1128    0.417
9469 OH2 3.814 31.906 32.794 oh 1129 TIP3_1129   -0.834
9470 H1 3.585 32.837 32.979 ho 1129 TIP3_1129    0.417
9471 H2 2.928 31.575 32.606 ho 1129 TIP3_1129    0.417
9472 OH2 10.448 50.338 22.988 oh 1130 TIP3_1130   -0.834
9473 H1 11.081 51.048 22.790 ho 1130 TIP3_1130    0.417
9474 H2 9.630 50.611 22.510 ho 1130 TIP3_1130    0.417
9475 OH2 1.190 31.262 21.874 oh 1131 TIP3_1131   -0.834
9476 H1 1.046 30.404 21.485 ho 1131 TIP3_1131    0.417
9477 H2 1.272 31.041 22.865 ho 1131 TIP3_1131    0.417
9478 OH2 12.225 34.473 32.274 oh 1132 TIP3_1132   -0.834
9479 H1 11.967 33.771 31.658 ho 1132 TIP3_1132    0.417
9480 H2 11.399 34.823 32.633 ho 1132 TIP3_1132    0.417
9481 OH2 15.339 37.497 39.791 oh 1133 TIP3_1133   -0.834
9482 H1 15.255 38.359 39.358 ho 1133 TIP3_1133    0.417
9483 H2 14.437 37.162 39.691 ho 1133 TIP3_1133    0.417
9484 OH2 23.535 48.993 28.617 oh 1134 TIP3_1134   -0.834
9485 H1 23.544 48.503 29.449 ho 1134 TIP3_1134    0.417
9486 H2 23.734 48.300 28.021 ho 1134 TIP3_1134    0.417
9487 OH2 21.178 40.212 24.992 oh 1135 TIP3_1135   -0.834
9488 H1 21.705 39.516 24.629 ho 1135 TIP3_1135    0.417
9489 H2 20.278 40.065 24.565 ho 1135 TIP3_1135    0.417
9490 OH2 4.677 33.754 29.867 oh 1136 TIP3_1136   -0.834
9491 H1 4.019 34.426 30.078 ho 1136 TIP3_1136    0.417
9492 H2 4.888 33.393 30.720 ho 1136 TIP3_1136    0.417
9493 OH2 14.783 28.211 37.127 oh 1137 TIP3_1137   -0.834
9494 H1 15.595 28.639 36.978 ho 1137 TIP3_1137    0.417
9495 H2 14.877 27.999 38.044 ho 1137 TIP3_1137    0.417
9496 OH2 9.117 29.784 37.739 oh 1138 TIP3_1138   -0.834
9497 H1 8.538 29.049 37.755 ho 1138 TIP3_1138    0.417
9498 H2 9.966 29.401 38.007 ho 1138 TIP3_1138    0.417
9499 OH2 6.804 37.756 32.472 oh 1139 TIP3_1139   -0.834
9500 H1 6.543 38.642 32.150 ho 1139 TIP3_1139    0.417
9501 H2 7.291 37.930 33.286 ho 1139 TIP3_1139    0.417
9502 OH2 1.318 31.025 32.768 oh 1140 TIP3_1140   -0.834
9503 H1 1.091 30.362 33.357 ho 1140 TIP3_1140    0.417
9504 H2 0.538 31.166 32.192 ho 1140 TIP3_1140    0.417
9505 OH2 17.242 32.447 37.847 oh 1141 TIP3_1141   -0.834
9506 H1 17.771 33.117 37.278 ho 1141 TIP3_1141    0.417
9507 H2 17.392 32.676 38.813 ho 1141 TIP3_1141    0.417
9508 OH2 22.484 49.079 39.141 oh 1142 TIP3_1142   -0.834
9509 H1 22.307 49.846 39.720 ho 1142 TIP3_1142    0.417
9510 H2 21.938 49.185 38.351 ho 1142 TIP3_1142    0.417
9511 OH2 24.188 49.029 36.208 oh 1143 TIP3_1143   -0.834
9512 H1 24.601 49.231 37.022 ho 1143 TIP3_1143    0.417
9513 H2 24.765 49.491 35.520 ho 1143 TIP3_1143    0.417
9514 OH2 10.432 26.980 35.743 oh 1144 TIP3_1144   -0.834
9515 H1 11.211 27.551 35.878 ho 1144 TIP3_1144    0.417
9516 H2 10.507 26.348 36.517 ho 1144 TIP3_1144    0.417
9517 OH2 16.712 56.504 32.628 oh 1145 TIP3_1145   -0.834
9518 H1 17.466 56.131 33.125 ho 1145 TIP3_1145    0.417
9519 H2 15.988 56.552 33.298 ho 1145 TIP3_1145    0.417
9520 OH2 9.510 38.706 30.977 oh 1146 TIP3_1146   -0.834
9521 H1 9.762 38.784 30.063 ho 1146 TIP3_1146    0.417
9522 H2 9.115 37.782 31.024 ho 1146 TIP3_1146    0.417
9523 OH2 13.648 35.935 28.628 oh 1147 TIP3_1147   -0.834
9524 H1 13.213 36.509 27.958 ho 1147 TIP3_1147    0.417
9525 H2 13.113 35.887 29.427 ho 1147 TIP3_1147    0.417
9526 OH2 2.681 27.467 31.973 oh 1148 TIP3_1148   -0.834
9527 H1 2.966 26.730 31.409 ho 1148 TIP3_1148    0.417
9528 H2 1.680 27.412 32.012 ho 1148 TIP3_1148    0.417
9529 OH2 2.445 29.801 30.712 oh 1149 TIP3_1149   -0.834
9530 H1 2.476 28.983 31.256 ho 1149 TIP3_1149    0.417
9531 H2 2.046 30.460 31.281 ho 1149 TIP3_1149    0.417
9532 OH2 20.437 25.495 25.250 oh 1150 TIP3_1150   -0.834
9533 H1 20.207 25.221 26.090 ho 1150 TIP3_1150    0.417
9534 H2 20.927 26.338 25.452 ho 1150 TIP3_1150    0.417
9535 OH2 19.622 30.060 39.315 oh 1151 TIP3_1151   -0.834
9536 H1 19.779 30.353 38.419 ho 1151 TIP3_1151    0.417
9537 H2 20.286 30.537 39.826 ho 1151 TIP3_1151    0.417
9538 OH2 17.938 42.460 32.460 oh 1152 TIP3_1152   -0.834
9539 H1 18.443 41.826 31.973 ho 1152 TIP3_1152    0.417
9540 H2 17.932 43.144 31.831 ho 1152 TIP3_1152    0.417
9541 OH2 17.161 51.152 34.507 oh 1153 TIP3_1153   -0.834
9542 H1 16.140 51.312 34.523 ho 1153 TIP3_1153    0.417
9543 H2 17.510 51.708 33.781 ho 1153 TIP3_1153    0.417
9544 OH2 19.892 54.754 39.106 oh 1154 TIP3_1154   -0.834
9545 H1 19.525 55.511 39.632 ho 1154 TIP3_1154    0.417
9546 H2 19.991 53.969 39.731 ho 1154 TIP3_1154    0.417
9547 OH2 23.673 29.483 24.248 oh 1155 TIP3_1155   -0.834
9548 H1 23.961 30.442 23.896 ho 1155 TIP3_1155    0.417
9549 H2 24.540 29.184 24.598 ho 1155 TIP3_1155    0.417
9550 OH2 24.433 51.769 28.143 oh 1156 TIP3_1156   -0.834
9551 H1 24.323 50.854 28.431 ho 1156 TIP3_1156    0.417
9552 H2 23.575 52.116 28.489 ho 1156 TIP3_1156    0.417
9553 OH2 6.795 52.923 22.428 oh 1157 TIP3_1157   -0.834
9554 H1 7.331 52.708 23.252 ho 1157 TIP3_1157    0.417
9555 H2 6.121 52.250 22.411 ho 1157 TIP3_1157    0.417
9556 OH2 24.454 39.938 25.579 oh 1158 TIP3_1158   -0.834
9557 H1 24.584 39.174 26.193 ho 1158 TIP3_1158    0.417
9558 H2 24.697 39.553 24.753 ho 1158 TIP3_1158    0.417
9559 OH2 0.333 54.573 21.867 oh 1159 TIP3_1159   -0.834
9560 H1 0.704 54.277 21.066 ho 1159 TIP3_1159    0.417
9561 H2 -0.643 54.702 21.621 ho 1159 TIP3_1159    0.417
9562 OH2 18.871 54.531 36.631 oh 1160 TIP3_1160   -0.834
9563 H1 19.332 54.453 37.515 ho 1160 TIP3_1160    0.417
9564 H2 18.176 53.785 36.761 ho 1160 TIP3_1160    0.417
9565 OH2 11.903 48.552 28.434 oh 1161 TIP3_1161   -0.834
9566 H1 12.054 48.149 29.275 ho 1161 TIP3_1161    0.417
9567 H2 11.843 49.518 28.623 ho 1161 TIP3_1161    0.417
9568 OH2 1.929 27.942 36.970 oh 1162 TIP3_1162   -0.834
9569 H1 2.470 27.331 36.465 ho 1162 TIP3_1162    0.417
9570 H2 1.250 27.368 37.371 ho 1162 TIP3_1162    0.417
9571 OH2 0.364 26.265 32.553 oh 1163 TIP3_1163   -0.834
9572 H1 -0.335 25.964 33.210 ho 1163 TIP3_1163    0.417
9573 H2 0.826 25.478 32.465 ho 1163 TIP3_1163    0.417
9574 OH2 10.161 42.429 38.543 oh 1164 TIP3_1164   -0.834
9575 H1 10.258 41.473 38.433 ho 1164 TIP3_1164    0.417
9576 H2 10.162 42.673 37.567 ho 1164 TIP3_1164    0.417
9577 OH2 10.217 43.478 36.021 oh 1165 TIP3_1165   -0.834
9578 H1 9.477 44.007 35.681 ho 1165 TIP3_1165    0.417
9579 H2 10.647 43.091 35.190 ho 1165 TIP3_1165    0.417
9580 OH2 15.876 34.320 28.268 oh 1166 TIP3_1166   -0.834
9581 H1 15.908 34.270 27.324 ho 1166 TIP3_1166    0.417
9582 H2 15.011 34.580 28.477 ho 1166 TIP3_1166    0.417
9583 OH2 11.166 51.356 32.097 oh 1167 TIP3_1167   -0.834
9584 H1 10.328 51.530 32.525 ho 1167 TIP3_1167    0.417
9585 H2 11.749 52.118 32.422 ho 1167 TIP3_1167    0.417
9586 OH2 9.485 44.354 33.257 oh 1168 TIP3_1168   -0.834
9587 H1 10.335 43.869 33.460 ho 1168 TIP3_1168    0.417
9588 H2 9.813 45.175 32.836 ho 1168 TIP3_1168    0.417
9589 OH2 4.931 38.631 23.705 oh 1169 TIP3_1169   -0.834
9590 H1 5.246 39.571 23.796 ho 1169 TIP3_1169    0.417
9591 H2 5.762 38.164 23.559 ho 1169 TIP3_1169    0.417
9592 OH2 23.338 38.211 34.824 oh 1170 TIP3_1170   -0.834
9593 H1 23.029 39.129 34.826 ho 1170 TIP3_1170    0.417
9594 H2 22.643 37.844 35.376 ho 1170 TIP3_1170    0.417
9595 OH2 21.527 33.083 37.389 oh 1171 TIP3_1171   -0.834
9596 H1 21.251 32.138 37.217 ho 1171 TIP3_1171    0.417
9597 H2 20.730 33.603 37.142 ho 1171 TIP3_1171    0.417
9598 OH2 0.669 28.701 34.453 oh 1172 TIP3_1172   -0.834
9599 H1 0.837 27.765 34.309 ho 1172 TIP3_1172    0.417
9600 H2 1.139 28.915 35.274 ho 1172 TIP3_1172    0.417
9601 OH2 22.153 57.380 22.435 oh 1173 TIP3_1173   -0.834
9602 H1 21.339 57.106 22.033 ho 1173 TIP3_1173    0.417
9603 H2 22.236 56.711 23.126 ho 1173 TIP3_1173    0.417
9604 OH2 15.844 28.056 25.322 oh 1174 TIP3_1174   -0.834
9605 H1 15.352 28.325 24.608 ho 1174 TIP3_1174    0.417
9606 H2 16.537 28.683 25.322 ho 1174 TIP3_1174    0.417
9607 OH2 14.632 42.644 30.390 oh 1175 TIP3_1175   -0.834
9608 H1 15.015 42.372 31.208 ho 1175 TIP3_1175    0.417
9609 H2 13.671 42.869 30.617 ho 1175 TIP3_1175    0.417
9610 OH2 24.518 51.226 34.244 oh 1176 TIP3_1176   -0.834
9611 H1 23.611 50.893 34.410 ho 1176 TIP3_1176    0.417
9612 H2 24.603 52.074 34.629 ho 1176 TIP3_1176    0.417
9613 OH2 8.653 46.374 29.908 oh 1177 TIP3_1177   -0.834
9614 H1 8.702 45.838 29.122 ho 1177 TIP3_1177    0.417
9615 H2 7.888 46.034 30.376 ho 1177 TIP3_1177    0.417
9616 OH2 22.196 35.881 21.561 oh 1178 TIP3_1178   -0.834
9617 H1 21.965 36.038 22.516 ho 1178 TIP3_1178    0.417
9618 H2 21.370 35.481 21.188 ho 1178 TIP3_1178    0.417
9619 OH2 7.275 41.438 36.112 oh 1179 TIP3_1179   -0.834
9620 H1 7.945 40.758 36.051 ho 1179 TIP3_1179    0.417
9621 H2 7.204 41.713 35.161 ho 1179 TIP3_1179    0.417
9622 OH2 9.408 37.523 39.088 oh 1180 TIP3_1180   -0.834
9623 H1 9.017 38.311 39.378 ho 1180 TIP3_1180    0.417
9624 H2 10.307 37.880 38.789 ho 1180 TIP3_1180    0.417
9625 OH2 8.515 52.949 24.573 oh 1181 TIP3_1181   -0.834
9626 H1 9.176 53.330 23.946 ho 1181 TIP3_1181    0.417
9627 H2 8.737 53.284 25.393 ho 1181 TIP3_1181    0.417
9628 OH2 12.926 37.227 33.431 oh 1182 TIP3_1182   -0.834
9629 H1 12.544 37.486 34.259 ho 1182 TIP3_1182    0.417
9630 H2 12.780 36.257 33.357 ho 1182 TIP3_1182    0.417
9631 OH2 14.276 29.922 34.329 oh 1183 TIP3_1183   -0.834
9632 H1 14.353 30.666 33.743 ho 1183 TIP3_1183    0.417
9633 H2 14.973 30.108 34.956 ho 1183 TIP3_1183    0.417
9634 OH2 22.551 33.539 27.209 oh 1184 TIP3_1184   -0.834
9635 H1 22.451 33.907 28.149 ho 1184 TIP3_1184    0.417
9636 H2 23.197 32.804 27.357 ho 1184 TIP3_1184    0.417
9637 OH2 18.409 37.168 27.906 oh 1185 TIP3_1185   -0.834
9638 H1 17.679 36.911 27.413 ho 1185 TIP3_1185    0.417
9639 H2 18.924 36.305 28.120 ho 1185 TIP3_1185    0.417
9640 OH2 5.868 53.734 28.150 oh 1186 TIP3_1186   -0.834
9641 H1 5.991 54.422 27.439 ho 1186 TIP3_1186    0.417
9642 H2 6.515 53.043 27.904 ho 1186 TIP3_1186    0.417
9643 OH2 8.185 35.875 30.914 oh 1187 TIP3_1187   -0.834
9644 H1 7.568 36.425 31.455 ho 1187 TIP3_1187    0.417
9645 H2 7.538 35.589 30.192 ho 1187 TIP3_1187    0.417
9646 OH2 20.837 48.798 29.462 oh 1188 TIP3_1188   -0.834
9647 H1 20.907 48.359 30.359 ho 1188 TIP3_1188    0.417
9648 H2 21.616 49.361 29.403 ho 1188 TIP3_1188    0.417
9649 OH2 18.618 46.372 36.858 oh 1189 TIP3_1189   -0.834
9650 H1 17.723 46.361 36.557 ho 1189 TIP3_1189    0.417
9651 H2 18.582 46.354 37.874 ho 1189 TIP3_1189    0.417
9652 OH2 3.033 28.459 20.963 oh 1190 TIP3_1190   -0.834
9653 H1 2.232 28.815 21.416 ho 1190 TIP3_1190    0.417
9654 H2 2.702 27.538 20.755 ho 1190 TIP3_1190    0.417
9655 OH2 2.029 37.629 22.633 oh 1191 TIP3_1191   -0.834
9656 H1 2.759 37.726 23.283 ho 1191 TIP3_1191    0.417
9657 H2 2.403 37.948 21.803 ho 1191 TIP3_1191    0.417
9658 OH2 21.092 27.661 36.447 oh 1192 TIP3_1192   -0.834
9659 H1 21.917 27.743 35.884 ho 1192 TIP3_1192    0.417
9660 H2 21.424 27.067 37.174 ho 1192 TIP3_1192    0.417
9661 OH2 17.028 33.278 24.187 oh 1193 TIP3_1193   -0.834
9662 H1 16.896 33.414 23.240 ho 1193 TIP3_1193    0.417
9663 H2 16.283 33.717 24.552 ho 1193 TIP3_1193    0.417
9664 OH2 22.370 44.173 24.076 oh 1194 TIP3_1194   -0.834
9665 H1 23.129 43.626 24.198 ho 1194 TIP3_1194    0.417
9666 H2 21.794 43.856 24.812 ho 1194 TIP3_1194    0.417
9667 OH2 11.698 34.836 21.967 oh 1195 TIP3_1195   -0.834
9668 H1 12.091 35.432 21.333 ho 1195 TIP3_1195    0.417
9669 H2 12.381 34.684 22.567 ho 1195 TIP3_1195    0.417
9670 OH2 11.697 30.509 32.576 oh 1196 TIP3_1196   -0.834
9671 H1 11.091 29.804 32.813 ho 1196 TIP3_1196    0.417
9672 H2 11.834 30.967 33.410 ho 1196 TIP3_1196    0.417
9673 OH2 23.436 35.338 25.173 oh 1197 TIP3_1197   -0.834
9674 H1 24.250 34.795 25.229 ho 1197 TIP3_1197    0.417
9675 H2 22.843 34.841 25.855 ho 1197 TIP3_1197    0.417
9676 OH2 4.201 36.634 33.174 oh 1198 TIP3_1198   -0.834
9677 H1 4.874 37.314 33.297 ho 1198 TIP3_1198    0.417
9678 H2 4.387 36.347 32.229 ho 1198 TIP3_1198    0.417
9679 OH2 19.177 25.254 21.157 oh 1199 TIP3_1199   -0.834
9680 H1 19.018 25.300 22.133 ho 1199 TIP3_1199    0.417
9681 H2 19.706 26.160 21.043 ho 1199 TIP3_1199    0.417
9682 OH2 17.745 29.707 22.054 oh 1200 TIP3_1200   -0.834
9683 H1 18.171 30.170 22.784 ho 1200 TIP3_1200    0.417
9684 H2 16.811 29.863 22.178 ho 1200 TIP3_1200    0.417
9685 OH2 6.100 48.775 34.877 oh 1201 TIP3_1201   -0.834
9686 H1 5.416 49.441 34.639 ho 1201 TIP3_1201    0.417
9687 H2 5.933 48.615 35.786 ho 1201 TIP3_1201    0.417
9688 OH2 15.728 46.508 26.251 oh 1202 TIP3_1202   -0.834
9689 H1 15.116 47.120 25.786 ho 1202 TIP3_1202    0.417
9690 H2 16.486 47.116 26.488 ho 1202 TIP3_1202    0.417
9691 OH2 5.137 47.851 22.355 oh 1203 TIP3_1203   -0.834
9692 H1 5.789 47.375 21.813 ho 1203 TIP3_1203    0.417
9693 H2 5.670 48.477 22.823 ho 1203 TIP3_1203    0.417
9694 OH2 0.090 47.311 36.211 oh 1204 TIP3_1204   -0.834
9695 H1 0.958 47.594 35.755 ho 1204 TIP3_1204    0.417
9696 H2 0.437 46.952 37.088 ho 1204 TIP3_1204    0.417
9697 OH2 21.205 31.961 23.975 oh 1205 TIP3_1205   -0.834
9698 H1 20.795 32.001 24.885 ho 1205 TIP3_1205    0.417
9699 H2 20.583 32.537 23.502 ho 1205 TIP3_1205    0.417
9700 OH2 16.873 39.713 21.991 oh 1206 TIP3_1206   -0.834
9701 H1 17.659 39.628 22.538 ho 1206 TIP3_1206    0.417
9702 H2 16.427 40.485 22.311 ho 1206 TIP3_1206    0.417
9703 OH2 1.481 52.553 34.449 oh 1207 TIP3_1207   -0.834
9704 H1 1.004 52.381 35.324 ho 1207 TIP3_1207    0.417
9705 H2 0.929 52.078 33.801 ho 1207 TIP3_1207    0.417
9706 OH2 12.281 56.681 39.660 oh 1208 TIP3_1208   -0.834
9707 H1 12.520 57.442 39.078 ho 1208 TIP3_1208    0.417
9708 H2 12.940 56.105 39.296 ho 1208 TIP3_1208    0.417
9709 OH2 8.010 51.672 32.756 oh 1209 TIP3_1209   -0.834
9710 H1 7.982 52.638 32.841 ho 1209 TIP3_1209    0.417
9711 H2 7.347 51.374 33.375 ho 1209 TIP3_1209    0.417
9712 OH2 7.713 51.595 27.829 oh 1210 TIP3_1210   -0.834
9713 H1 8.443 51.598 27.216 ho 1210 TIP3_1210    0.417
9714 H2 7.159 50.868 27.588 ho 1210 TIP3_1210    0.417
9715 OH2 21.470 46.090 26.823 oh 1211 TIP3_1211   -0.834
9716 H1 21.023 46.204 27.699 ho 1211 TIP3_1211    0.417
9717 H2 20.812 45.876 26.170 ho 1211 TIP3_1211    0.417
9718 OH2 11.759 38.858 38.660 oh 1212 TIP3_1212   -0.834
9719 H1 12.254 38.078 38.719 ho 1212 TIP3_1212    0.417
9720 H2 11.903 39.277 39.514 ho 1212 TIP3_1212    0.417
9721 OH2 11.949 34.151 37.990 oh 1213 TIP3_1213   -0.834
9722 H1 12.451 34.134 37.157 ho 1213 TIP3_1213    0.417
9723 H2 11.438 33.307 37.910 ho 1213 TIP3_1213    0.417
9724 OH2 12.331 37.683 26.837 oh 1214 TIP3_1214   -0.834
9725 H1 11.873 37.605 26.000 ho 1214 TIP3_1214    0.417
9726 H2 12.504 38.678 26.884 ho 1214 TIP3_1214    0.417
9727 OH2 16.639 45.334 31.922 oh 1215 TIP3_1215   -0.834
9728 H1 16.439 45.932 31.127 ho 1215 TIP3_1215    0.417
9729 H2 17.349 45.715 32.450 ho 1215 TIP3_1215    0.417
9730 OH2 5.667 46.477 26.851 oh 1216 TIP3_1216   -0.834
9731 H1 5.600 47.083 27.639 ho 1216 TIP3_1216    0.417
9732 H2 4.728 46.243 26.693 ho 1216 TIP3_1216    0.417
9733 OH2 16.651 38.515 30.661 oh 1217 TIP3_1217   -0.834
9734 H1 17.249 38.869 31.411 ho 1217 TIP3_1217    0.417
9735 H2 16.180 37.748 30.981 ho 1217 TIP3_1217    0.417
9736 OH2 13.872 55.165 38.071 oh 1218 TIP3_1218   -0.834
9737 H1 14.333 54.322 38.239 ho 1218 TIP3_1218    0.417
9738 H2 14.365 55.598 37.312 ho 1218 TIP3_1218    0.417
9739 OH2 1.173 51.160 27.467 oh 1219 TIP3_1219   -0.834
9740 H1 0.814 52.030 27.031 ho 1219 TIP3_1219    0.417
9741 H2 2.180 51.313 27.419 ho 1219 TIP3_1219    0.417
9742 OH2 14.685 29.448 31.583 oh 1220 TIP3_1220   -0.834
9743 H1 14.380 29.372 32.501 ho 1220 TIP3_1220    0.417
9744 H2 14.772 28.568 31.287 ho 1220 TIP3_1220    0.417
9745 OH2 2.127 25.409 28.036 oh 1221 TIP3_1221   -0.834
9746 H1 1.234 25.232 27.862 ho 1221 TIP3_1221    0.417
9747 H2 2.331 26.242 27.601 ho 1221 TIP3_1221    0.417
9748 OH2 18.723 27.332 26.540 oh 1222 TIP3_1222   -0.834
9749 H1 19.619 27.427 26.767 ho 1222 TIP3_1222    0.417
9750 H2 18.330 27.975 27.053 ho 1222 TIP3_1222    0.417
9751 OH2 16.693 51.664 29.127 oh 1223 TIP3_1223   -0.834
9752 H1 15.850 51.311 28.722 ho 1223 TIP3_1223    0.417
9753 H2 17.330 51.065 28.629 ho 1223 TIP3_1223    0.417
9754 OH2 0.802 46.946 24.279 oh 1224 TIP3_1224   -0.834
9755 H1 0.962 47.817 24.581 ho 1224 TIP3_1224    0.417
9756 H2 1.286 46.998 23.438 ho 1224 TIP3_1224    0.417
9757 OH2 22.308 37.607 24.289 oh 1225 TIP3_1225   -0.834
9758 H1 21.428 37.118 24.172 ho 1225 TIP3_1225    0.417
9759 H2 22.856 36.859 24.705 ho 1225 TIP3_1225    0.417
9760 OH2 2.212 30.551 27.382 oh 1226 TIP3_1226   -0.834
9761 H1 1.802 30.120 28.044 ho 1226 TIP3_1226    0.417
9762 H2 2.823 31.116 27.843 ho 1226 TIP3_1226    0.417
9763 OH2 2.765 45.981 26.274 oh 1227 TIP3_1227   -0.834
9764 H1 2.191 45.959 25.459 ho 1227 TIP3_1227    0.417
9765 H2 2.432 46.832 26.668 ho 1227 TIP3_1227    0.417
9766 OH2 11.162 52.874 38.398 oh 1228 TIP3_1228   -0.834
9767 H1 12.054 52.642 38.619 ho 1228 TIP3_1228    0.417
9768 H2 10.784 52.060 38.339 ho 1228 TIP3_1228    0.417
9769 OH2 12.725 54.266 23.185 oh 1229 TIP3_1229   -0.834
9770 H1 12.016 54.377 23.838 ho 1229 TIP3_1229    0.417
9771 H2 12.279 54.451 22.346 ho 1229 TIP3_1229    0.417
9772 OH2 14.964 47.475 32.863 oh 1230 TIP3_1230   -0.834
9773 H1 14.140 47.317 32.397 ho 1230 TIP3_1230    0.417
9774 H2 15.279 46.598 33.195 ho 1230 TIP3_1230    0.417
9775 OH2 15.944 42.051 22.976 oh 1231 TIP3_1231   -0.834
9776 H1 15.915 42.977 23.411 ho 1231 TIP3_1231    0.417
9777 H2 14.924 41.850 22.873 ho 1231 TIP3_1231    0.417
9778 OH2 3.957 46.722 30.922 oh 1232 TIP3_1232   -0.834
9779 H1 3.135 46.403 30.483 ho 1232 TIP3_1232    0.417
9780 H2 3.661 47.493 31.495 ho 1232 TIP3_1232    0.417
9781 OH2 3.314 56.034 31.932 oh 1233 TIP3_1233   -0.834
9782 H1 3.977 55.813 32.590 ho 1233 TIP3_1233    0.417
9783 H2 2.711 55.233 32.007 ho 1233 TIP3_1233    0.417
9784 OH2 9.338 27.949 26.330 oh 1234 TIP3_1234   -0.834
9785 H1 10.061 28.618 26.228 ho 1234 TIP3_1234    0.417
9786 H2 8.640 28.431 26.567 ho 1234 TIP3_1234    0.417
9787 OH2 21.738 26.517 38.864 oh 1235 TIP3_1235   -0.834
9788 H1 21.831 26.926 39.712 ho 1235 TIP3_1235    0.417
9789 H2 21.321 25.726 39.112 ho 1235 TIP3_1235    0.417
9790 OH2 18.297 27.000 36.244 oh 1236 TIP3_1236   -0.834
9791 H1 17.862 27.774 36.746 ho 1236 TIP3_1236    0.417
9792 H2 19.274 27.193 36.496 ho 1236 TIP3_1236    0.417
9793 OH2 1.626 41.681 21.540 oh 1237 TIP3_1237   -0.834
9794 H1 1.343 42.609 21.892 ho 1237 TIP3_1237    0.417
9795 H2 1.292 41.121 22.245 ho 1237 TIP3_1237    0.417
9796 OH2 16.544 31.028 35.335 oh 1238 TIP3_1238   -0.834
9797 H1 16.484 31.544 36.128 ho 1238 TIP3_1238    0.417
9798 H2 17.457 31.114 35.126 ho 1238 TIP3_1238    0.417
9799 OH2 10.905 48.289 37.597 oh 1239 TIP3_1239   -0.834
9800 H1 10.405 47.453 37.683 ho 1239 TIP3_1239    0.417
9801 H2 11.099 48.300 36.627 ho 1239 TIP3_1239    0.417
9802 OH2 2.633 55.515 23.238 oh 1240 TIP3_1240   -0.834
9803 H1 2.100 55.148 22.463 ho 1240 TIP3_1240    0.417
9804 H2 3.333 56.011 22.765 ho 1240 TIP3_1240    0.417
9805 OH2 5.847 34.094 32.368 oh 1241 TIP3_1241   -0.834
9806 H1 5.536 34.499 33.204 ho 1241 TIP3_1241    0.417
9807 H2 6.760 33.912 32.688 ho 1241 TIP3_1241    0.417
9808 OH2 18.668 55.987 30.268 oh 1242 TIP3_1242   -0.834
9809 H1 17.861 56.239 30.764 ho 1242 TIP3_1242    0.417
9810 H2 19.310 56.654 30.441 ho 1242 TIP3_1242    0.417
9811 OH2 11.482 42.197 33.853 oh 1243 TIP3_1243   -0.834
9812 H1 11.006 41.432 33.515 ho 1243 TIP3_1243    0.417
9813 H2 12.417 42.026 33.566 ho 1243 TIP3_1243    0.417
9814 OH2 17.500 25.537 31.506 oh 1244 TIP3_1244   -0.834
9815 H1 17.243 25.377 32.441 ho 1244 TIP3_1244    0.417
9816 H2 18.481 25.337 31.420 ho 1244 TIP3_1244    0.417
9817 OH2 18.708 46.259 33.355 oh 1245 TIP3_1245   -0.834
9818 H1 18.758 47.004 33.906 ho 1245 TIP3_1245    0.417
9819 H2 19.486 46.441 32.771 ho 1245 TIP3_1245    0.417
9820 OH2 0.589 30.270 37.956 oh 1246 TIP3_1246   -0.834
9821 H1 0.815 29.478 37.537 ho 1246 TIP3_1246    0.417
9822 H2 1.224 30.434 38.676 ho 1246 TIP3_1246    0.417
9823 OH2 10.030 35.047 26.393 oh 1247 TIP3_1247   -0.834
9824 H1 10.212 35.118 27.339 ho 1247 TIP3_1247    0.417
9825 H2 9.099 34.790 26.366 ho 1247 TIP3_1247    0.417
9826 OH2 4.289 28.150 34.720 oh 1248 TIP3_1248   -0.834
9827 H1 4.950 28.790 34.350 ho 1248 TIP3_1248    0.417
9828 H2 3.761 27.895 33.940 ho 1248 TIP3_1248    0.417
9829 OH2 21.612 29.426 22.418 oh 1249 TIP3_1249   -0.834
9830 H1 22.355 29.326 23.078 ho 1249 TIP3_1249    0.417
9831 H2 21.268 30.308 22.617 ho 1249 TIP3_1249    0.417
9832 OH2 19.308 46.684 28.447 oh 1250 TIP3_1250   -0.834
9833 H1 18.773 46.843 27.702 ho 1250 TIP3_1250    0.417
9834 H2 19.486 47.580 28.730 ho 1250 TIP3_1250    0.417
9835 OH2 15.672 43.777 26.338 oh 1251 TIP3_1251   -0.834
9836 H1 15.304 43.796 25.476 ho 1251 TIP3_1251    0.417
9837 H2 15.669 44.675 26.678 ho 1251 TIP3_1251    0.417
9838 OH2 13.511 27.046 30.968 oh 1252 TIP3_1252   -0.834
9839 H1 12.889 27.581 30.488 ho 1252 TIP3_1252    0.417
9840 H2 12.999 26.768 31.684 ho 1252 TIP3_1252    0.417
9841 OH2 2.107 53.478 31.404 oh 1253 TIP3_1253   -0.834
9842 H1 2.630 52.674 31.158 ho 1253 TIP3_1253    0.417
9843 H2 1.224 53.217 31.275 ho 1253 TIP3_1253    0.417
9844 OH2 15.300 41.537 33.245 oh 1254 TIP3_1254   -0.834
9845 H1 16.302 41.543 33.084 ho 1254 TIP3_1254    0.417
9846 H2 14.944 40.680 33.017 ho 1254 TIP3_1254    0.417
9847 OH2 10.444 34.893 29.555 oh 1255 TIP3_1255   -0.834
9848 H1 9.898 35.185 30.253 ho 1255 TIP3_1255    0.417
9849 H2 10.644 33.994 29.968 ho 1255 TIP3_1255    0.417
9850 OH2 3.251 49.865 22.866 oh 1256 TIP3_1256   -0.834
9851 H1 3.389 50.184 23.800 ho 1256 TIP3_1256    0.417
9852 H2 3.750 49.042 22.908 ho 1256 TIP3_1256    0.417
9853 OH2 4.059 41.798 30.865 oh 1257 TIP3_1257   -0.834
9854 H1 3.687 42.255 31.658 ho 1257 TIP3_1257    0.417
9855 H2 4.347 42.528 30.289 ho 1257 TIP3_1257    0.417
9856 OH2 5.673 36.001 28.920 oh 1258 TIP3_1258   -0.834
9857 H1 5.445 35.104 29.327 ho 1258 TIP3_1258    0.417
9858 H2 4.950 36.173 28.247 ho 1258 TIP3_1258    0.417
9859 OH2 21.353 55.065 24.618 oh 1259 TIP3_1259   -0.834
9860 H1 21.053 54.411 23.976 ho 1259 TIP3_1259    0.417
9861 H2 22.115 54.604 24.982 ho 1259 TIP3_1259    0.417
9862 OH2 14.486 43.196 37.285 oh 1260 TIP3_1260   -0.834
9863 H1 14.797 43.710 38.028 ho 1260 TIP3_1260    0.417
9864 H2 14.728 42.263 37.553 ho 1260 TIP3_1260    0.417
9865 OH2 17.544 51.926 21.411 oh 1261 TIP3_1261   -0.834
9866 H1 18.242 51.369 21.847 ho 1261 TIP3_1261    0.417
9867 H2 17.786 52.809 21.768 ho 1261 TIP3_1261    0.417
9868 OH2 1.978 49.748 30.191 oh 1262 TIP3_1262   -0.834
9869 H1 2.752 50.332 30.403 ho 1262 TIP3_1262    0.417
9870 H2 1.598 50.191 29.464 ho 1262 TIP3_1262    0.417
9871 OH2 0.932 49.631 24.754 oh 1263 TIP3_1263   -0.834
9872 H1 0.685 50.541 24.430 ho 1263 TIP3_1263    0.417
9873 H2 0.968 49.782 25.698 ho 1263 TIP3_1263    0.417
9874 OH2 2.510 47.709 34.826 oh 1264 TIP3_1264   -0.834
9875 H1 3.180 47.143 35.210 ho 1264 TIP3_1264    0.417
9876 H2 3.048 48.575 34.752 ho 1264 TIP3_1264    0.417
9877 OH2 4.655 33.672 26.943 oh 1265 TIP3_1265   -0.834
9878 H1 4.762 33.627 27.911 ho 1265 TIP3_1265    0.417
9879 H2 4.214 34.511 26.739 ho 1265 TIP3_1265    0.417
9880 OH2 6.657 32.413 35.089 oh 1266 TIP3_1266   -0.834
9881 H1 6.102 31.899 34.465 ho 1266 TIP3_1266    0.417
9882 H2 6.276 33.310 35.201 ho 1266 TIP3_1266    0.417
9883 OH2 12.240 40.538 26.205 oh 1267 TIP3_1267   -0.834
9884 H1 11.816 40.505 25.358 ho 1267 TIP3_1267    0.417
9885 H2 12.300 41.555 26.414 ho 1267 TIP3_1267    0.417
9886 OH2 15.772 48.177 23.305 oh 1268 TIP3_1268   -0.834
9887 H1 15.660 47.518 22.620 ho 1268 TIP3_1268    0.417
9888 H2 15.147 48.921 23.083 ho 1268 TIP3_1268    0.417
9889 OH2 18.674 42.338 23.023 oh 1269 TIP3_1269   -0.834
9890 H1 18.612 42.348 24.025 ho 1269 TIP3_1269    0.417
9891 H2 17.728 42.090 22.854 ho 1269 TIP3_1269    0.417
9892 OH2 10.388 39.201 28.292 oh 1270 TIP3_1270   -0.834
9893 H1 10.822 38.417 28.005 ho 1270 TIP3_1270    0.417
9894 H2 10.683 39.883 27.671 ho 1270 TIP3_1270    0.417
9895 OH2 14.290 38.558 23.703 oh 1271 TIP3_1271   -0.834
9896 H1 14.730 39.242 24.272 ho 1271 TIP3_1271    0.417
9897 H2 15.066 38.305 23.121 ho 1271 TIP3_1271    0.417
9898 OH2 0.994 56.533 25.264 oh 1272 TIP3_1272   -0.834
9899 H1 0.842 57.366 24.858 ho 1272 TIP3_1272    0.417
9900 H2 1.717 56.090 24.681 ho 1272 TIP3_1272    0.417
9901 OH2 8.251 44.217 39.143 oh 1273 TIP3_1273   -0.834
9902 H1 9.032 43.593 38.976 ho 1273 TIP3_1273    0.417
9903 H2 8.686 45.092 39.166 ho 1273 TIP3_1273    0.417
9904 OH2 9.612 47.300 32.435 oh 1274 TIP3_1274   -0.834
9905 H1 9.494 46.817 31.588 ho 1274 TIP3_1274    0.417
9906 H2 9.500 48.235 32.184 ho 1274 TIP3_1274    0.417
9907 OH2 20.169 29.717 32.428 oh 1275 TIP3_1275   -0.834
9908 H1 21.074 29.592 32.389 ho 1275 TIP3_1275    0.417
9909 H2 19.807 28.811 32.409 ho 1275 TIP3_1275    0.417
9910 OH2 16.686 39.821 35.580 oh 1276 TIP3_1276   -0.834
9911 H1 16.847 40.136 36.510 ho 1276 TIP3_1276    0.417
9912 H2 15.774 39.480 35.658 ho 1276 TIP3_1276    0.417
9913 OH2 12.815 31.574 39.375 oh 1277 TIP3_1277   -0.834
9914 H1 11.975 32.102 39.319 ho 1277 TIP3_1277    0.417
9915 H2 13.523 32.137 39.493 ho 1277 TIP3_1277    0.417
9916 OH2 2.349 34.832 21.812 oh 1278 TIP3_1278   -0.834
9917 H1 2.226 35.799 21.965 ho 1278 TIP3_1278    0.417
9918 H2 3.151 34.650 22.307 ho 1278 TIP3_1278    0.417
9919 OH2 14.562 40.021 38.486 oh 1279 TIP3_1279   -0.834
9920 H1 14.425 40.460 39.344 ho 1279 TIP3_1279    0.417
9921 H2 15.471 40.312 38.279 ho 1279 TIP3_1279    0.417
9922 OH2 20.006 41.933 29.380 oh 1280 TIP3_1280   -0.834
9923 H1 19.192 41.402 29.424 ho 1280 TIP3_1280    0.417
9924 H2 20.324 41.696 28.511 ho 1280 TIP3_1280    0.417
9925 OH2 18.540 54.512 21.830 oh 1281 TIP3_1281   -0.834
9926 H1 19.116 55.160 21.408 ho 1281 TIP3_1281    0.417
9927 H2 18.709 54.578 22.768 ho 1281 TIP3_1281    0.417
9928 OH2 15.440 37.416 26.223 oh 1282 TIP3_1282   -0.834
9929 H1 14.777 37.215 26.872 ho 1282 TIP3_1282    0.417
9930 H2 15.278 38.376 26.094 ho 1282 TIP3_1282    0.417
9931 OH2 12.180 52.008 21.633 oh 1283 TIP3_1283   -0.834
9932 H1 11.385 51.959 21.167 ho 1283 TIP3_1283    0.417
9933 H2 12.222 52.850 22.041 ho 1283 TIP3_1283    0.417
9934 OH2 21.185 37.177 36.363 oh 1284 TIP3_1284   -0.834
9935 H1 20.835 38.006 36.335 ho 1284 TIP3_1284    0.417
9936 H2 20.596 36.702 37.023 ho 1284 TIP3_1284    0.417
9937 OH2 23.018 43.758 37.817 oh 1285 TIP3_1285   -0.834
9938 H1 22.663 44.652 37.764 ho 1285 TIP3_1285    0.417
9939 H2 22.990 43.526 38.778 ho 1285 TIP3_1285    0.417
9940 OH2 9.779 40.172 33.475 oh 1286 TIP3_1286   -0.834
9941 H1 10.198 39.793 34.208 ho 1286 TIP3_1286    0.417
9942 H2 9.457 39.383 32.993 ho 1286 TIP3_1286    0.417
9943 OH2 8.812 54.049 36.558 oh 1287 TIP3_1287   -0.834
9944 H1 8.368 53.234 36.364 ho 1287 TIP3_1287    0.417
9945 H2 9.731 53.861 36.327 ho 1287 TIP3_1287    0.417
9946 OH2 13.777 32.206 23.074 oh 1288 TIP3_1288   -0.834
9947 H1 13.667 32.911 23.685 ho 1288 TIP3_1288    0.417
9948 H2 13.761 32.733 22.262 ho 1288 TIP3_1288    0.417
9949 OH2 9.994 32.262 38.439 oh 1289 TIP3_1289   -0.834
9950 H1 9.847 31.328 38.432 ho 1289 TIP3_1289    0.417
9951 H2 9.197 32.675 38.793 ho 1289 TIP3_1289    0.417
9952 OH2 0.022 40.022 31.770 oh 1290 TIP3_1290   -0.834
9953 H1 0.811 39.708 32.377 ho 1290 TIP3_1290    0.417
9954 H2 -0.583 39.272 31.823 ho 1290 TIP3_1290    0.417
9955 OH2 3.780 51.524 27.976 oh 1291 TIP3_1291   -0.834
9956 H1 4.484 52.192 27.939 ho 1291 TIP3_1291    0.417
9957 H2 3.952 51.125 28.837 ho 1291 TIP3_1291    0.417
9958 OH2 13.265 50.005 37.667 oh 1292 TIP3_1292   -0.834
9959 H1 13.893 49.231 37.311 ho 1292 TIP3_1292    0.417
9960 H2 12.406 49.598 37.793 ho 1292 TIP3_1292    0.417
9961 OH2 9.084 40.148 25.509 oh 1293 TIP3_1293   -0.834
9962 H1 9.341 40.690 24.750 ho 1293 TIP3_1293    0.417
9963 H2 8.327 40.634 25.807 ho 1293 TIP3_1293    0.417
9964 OH2 19.751 50.645 22.569 oh 1294 TIP3_1294   -0.834
9965 H1 20.135 49.968 21.917 ho 1294 TIP3_1294    0.417
9966 H2 20.512 51.054 22.953 ho 1294 TIP3_1294    0.417
9967 OH2 9.630 33.123 22.738 oh 1295 TIP3_1295   -0.834
9968 H1 9.243 32.921 21.850 ho 1295 TIP3_1295    0.417
9969 H2 10.428 33.726 22.526 ho 1295 TIP3_1295    0.417
9970 OH2 10.190 41.693 23.147 oh 1296 TIP3_1296   -0.834
9971 H1 10.594 40.816 23.205 ho 1296 TIP3_1296    0.417
9972 H2 9.779 41.691 22.246 ho 1296 TIP3_1296    0.417
9973 OH2 8.152 26.968 33.696 oh 1297 TIP3_1297   -0.834
9974 H1 7.689 26.234 33.316 ho 1297 TIP3_1297    0.417
9975 H2 8.804 26.559 34.328 ho 1297 TIP3_1297    0.417
9976 OH2 1.626 42.801 24.786 oh 1298 TIP3_1298   -0.834
9977 H1 2.264 42.070 24.869 ho 1298 TIP3_1298    0.417
9978 H2 1.310 42.980 25.680 ho 1298 TIP3_1298    0.417
9979 OH2 5.874 26.066 36.325 oh 1299 TIP3_1299   -0.834
9980 H1 5.395 25.217 36.465 ho 1299 TIP3_1299    0.417
9981 H2 5.290 26.545 35.756 ho 1299 TIP3_1299    0.417
9982 OH2 11.855 28.450 29.488 oh 1300 TIP3_1300   -0.834
9983 H1 11.377 27.873 28.924 ho 1300 TIP3_1300    0.417
9984 H2 12.457 28.848 28.809 ho 1300 TIP3_1300    0.417
9985 OH2 18.935 33.885 36.258 oh 1301 TIP3_1301   -0.834
9986 H1 18.376 34.663 36.010 ho 1301 TIP3_1301    0.417
9987 H2 19.234 33.517 35.470 ho 1301 TIP3_1301    0.417
9988 OH2 0.885 28.216 28.622 oh 1302 TIP3_1302   -0.834
9989 H1 0.219 27.629 29.088 ho 1302 TIP3_1302    0.417
9990 H2 1.368 28.629 29.335 ho 1302 TIP3_1302    0.417
9991 OH2 21.362 49.279 36.800 oh 1303 TIP3_1303   -0.834
9992 H1 22.284 49.216 36.444 ho 1303 TIP3_1303    0.417
9993 H2 20.903 49.688 36.045 ho 1303 TIP3_1303    0.417
9994 OH2 16.918 48.339 35.201 oh 1304 TIP3_1304   -0.834
9995 H1 16.362 48.012 34.479 ho 1304 TIP3_1304    0.417
9996 H2 16.997 49.333 34.953 ho 1304 TIP3_1304    0.417
9997 OH2 24.210 46.339 31.708 oh 1305 TIP3_1305   -0.834
9998 H1 23.842 45.922 30.932 ho 1305 TIP3_1305    0.417
9999 H2 23.722 45.936 32.439 ho 1305 TIP3_1305    0.417
10000 OH2 14.853 36.362 35.916 oh 1306 TIP3_1306   -0.834
10001 H1 15.329 36.238 36.756 ho 1306 TIP3_1306    0.417
10002 H2 14.808 37.351 35.771 ho 1306 TIP3_1306    0.417
10003 OH2 16.441 33.013 30.815 oh 1307 TIP3_1307   -0.834
10004 H1 16.354 33.651 30.074 ho 1307 TIP3_1307    0.417
10005 H2 16.280 32.128 30.413 ho 1307 TIP3_1307    0.417
10006 OH2 22.697 46.953 23.264 oh 1308 TIP3_1308   -0.834
10007 H1 23.277 46.402 22.596 ho 1308 TIP3_1308    0.417
10008 H2 22.149 46.223 23.618 ho 1308 TIP3_1308    0.417
10009 OH2 3.044 43.400 27.941 oh 1309 TIP3_1309   -0.834
10010 H1 2.927 44.130 27.195 ho 1309 TIP3_1309    0.417
10011 H2 2.159 43.177 28.234 ho 1309 TIP3_1309    0.417
10012 OH2 4.133 41.246 38.305 oh 1310 TIP3_1310   -0.834
10013 H1 4.997 41.426 38.674 ho 1310 TIP3_1310    0.417
10014 H2 3.558 41.819 38.774 ho 1310 TIP3_1310    0.417
10015 OH2 21.792 25.892 33.739 oh 1311 TIP3_1311   -0.834
10016 H1 22.556 25.337 33.549 ho 1311 TIP3_1311    0.417
10017 H2 22.143 26.794 33.739 ho 1311 TIP3_1311    0.417
10018 OH2 2.204 34.677 32.995 oh 1312 TIP3_1312   -0.834
10019 H1 2.643 35.396 33.439 ho 1312 TIP3_1312    0.417
10020 H2 1.766 34.253 33.745 ho 1312 TIP3_1312    0.417
10021 OH2 3.583 55.824 29.102 oh 1313 TIP3_1313   -0.834
10022 H1 3.557 55.908 30.115 ho 1313 TIP3_1313    0.417
10023 H2 4.160 55.067 29.031 ho 1313 TIP3_1313    0.417
10024 OH2 8.028 41.707 30.385 oh 1314 TIP3_1314   -0.834
10025 H1 7.488 42.000 31.112 ho 1314 TIP3_1314    0.417
10026 H2 8.536 41.028 30.869 ho 1314 TIP3_1314    0.417
10027 OH2 1.050 43.753 35.866 oh 1315 TIP3_1315   -0.834
10028 H1 0.900 44.673 35.785 ho 1315 TIP3_1315    0.417
10029 H2 1.455 43.516 34.966 ho 1315 TIP3_1315    0.417
10030 OH2 19.012 43.741 34.944 oh 1316 TIP3_1316   -0.834
10031 H1 18.765 44.691 34.830 ho 1316 TIP3_1316    0.417
10032 H2 18.551 43.278 34.220 ho 1316 TIP3_1316    0.417
10033 OH2 20.891 43.338 21.815 oh 1317 TIP3_1317   -0.834
10034 H1 21.442 43.653 22.565 ho 1317 TIP3_1317    0.417
10035 H2 20.106 42.909 22.278 ho 1317 TIP3_1317    0.417
10036 OH2 12.402 34.220 25.326 oh 1318 TIP3_1318   -0.834
10037 H1 12.331 33.461 25.958 ho 1318 TIP3_1318    0.417
10038 H2 11.732 34.800 25.705 ho 1318 TIP3_1318    0.417
10039 OH2 7.368 33.770 26.359 oh 1319 TIP3_1319   -0.834
10040 H1 6.494 34.029 26.558 ho 1319 TIP3_1319    0.417
10041 H2 7.306 33.093 25.606 ho 1319 TIP3_1319    0.417
10042 OH2 11.493 30.657 22.498 oh 1320 TIP3_1320   -0.834
10043 H1 12.192 31.322 22.591 ho 1320 TIP3_1320    0.417
10044 H2 11.935 30.022 21.890 ho 1320 TIP3_1320    0.417
10045 OH2 24.079 54.231 31.886 oh 1321 TIP3_1321   -0.834
10046 H1 23.382 54.558 31.323 ho 1321 TIP3_1321    0.417
10047 H2 23.989 53.222 31.831 ho 1321 TIP3_1321    0.417
10048 OH2 18.151 30.716 24.578 oh 1322 TIP3_1322   -0.834
10049 H1 17.696 31.604 24.724 ho 1322 TIP3_1322    0.417
10050 H2 18.194 30.328 25.451 ho 1322 TIP3_1322    0.417
10051 OH2 1.601 46.149 38.075 oh 1323 TIP3_1323   -0.834
10052 H1 2.129 46.882 38.399 ho 1323 TIP3_1323    0.417
10053 H2 1.906 45.393 38.558 ho 1323 TIP3_1323    0.417
10054 OH2 3.647 52.554 21.998 oh 1324 TIP3_1324   -0.834
10055 H1 3.327 51.745 22.309 ho 1324 TIP3_1324    0.417
10056 H2 3.323 53.125 22.649 ho 1324 TIP3_1324    0.417
10057 OH2 14.728 44.086 33.326 oh 1325 TIP3_1325   -0.834
10058 H1 15.556 44.365 32.838 ho 1325 TIP3_1325    0.417
10059 H2 14.798 43.125 33.305 ho 1325 TIP3_1325    0.417
10060 OH2 10.653 50.857 29.373 oh 1326 TIP3_1326   -0.834
10061 H1 10.956 51.183 30.233 ho 1326 TIP3_1326    0.417
10062 H2 11.136 51.461 28.778 ho 1326 TIP3_1326    0.417
10063 OH2 21.704 55.815 27.392 oh 1327 TIP3_1327   -0.834
10064 H1 22.303 56.464 27.101 ho 1327 TIP3_1327    0.417
10065 H2 21.326 55.524 26.550 ho 1327 TIP3_1327    0.417
10066 OH2 12.000 55.922 29.127 oh 1328 TIP3_1328   -0.834
10067 H1 12.827 56.075 29.563 ho 1328 TIP3_1328    0.417
10068 H2 11.406 56.698 29.343 ho 1328 TIP3_1328    0.417
10069 OH2 2.912 35.973 29.491 oh 1329 TIP3_1329   -0.834
10070 H1 1.970 35.690 29.495 ho 1329 TIP3_1329    0.417
10071 H2 2.786 36.941 29.355 ho 1329 TIP3_1329    0.417
10072 OH2 13.118 41.855 22.499 oh 1330 TIP3_1330   -0.834
10073 H1 12.619 42.683 22.474 ho 1330 TIP3_1330    0.417
10074 H2 12.503 41.177 22.884 ho 1330 TIP3_1330    0.417
10075 OH2 3.174 32.299 24.694 oh 1331 TIP3_1331   -0.834
10076 H1 3.814 31.836 24.139 ho 1331 TIP3_1331    0.417
10077 H2 3.650 32.487 25.494 ho 1331 TIP3_1331    0.417
10078 OH2 13.146 53.444 32.743 oh 1332 TIP3_1332   -0.834
10079 H1 13.822 53.278 32.101 ho 1332 TIP3_1332    0.417
10080 H2 13.298 54.354 33.113 ho 1332 TIP3_1332    0.417
10081 OH2 9.951 54.246 27.204 oh 1333 TIP3_1333   -0.834
10082 H1 10.492 54.897 26.816 ho 1333 TIP3_1333    0.417
10083 H2 9.064 54.568 26.918 ho 1333 TIP3_1333    0.417
10084 OH2 4.248 40.086 27.549 oh 1334 TIP3_1334   -0.834
10085 H1 3.830 39.319 27.954 ho 1334 TIP3_1334    0.417
10086 H2 4.093 40.833 28.193 ho 1334 TIP3_1334    0.417
10087 OH2 9.299 32.071 27.378 oh 1335 TIP3_1335   -0.834
10088 H1 8.774 31.521 27.905 ho 1335 TIP3_1335    0.417
10089 H2 8.798 32.855 27.135 ho 1335 TIP3_1335    0.417
10090 OH2 21.343 46.528 35.921 oh 1336 TIP3_1336   -0.834
10091 H1 20.427 46.248 36.169 ho 1336 TIP3_1336    0.417
10092 H2 21.235 47.508 36.201 ho 1336 TIP3_1336    0.417
10093 OH2 16.848 49.407 32.005 oh 1337 TIP3_1337   -0.834
10094 H1 16.324 48.586 31.948 ho 1337 TIP3_1337    0.417
10095 H2 16.198 50.096 32.303 ho 1337 TIP3_1337    0.417
10096 OH2 14.645 51.236 22.791 oh 1338 TIP3_1338   -0.834
10097 H1 14.992 50.787 21.980 ho 1338 TIP3_1338    0.417
10098 H2 13.780 51.551 22.469 ho 1338 TIP3_1338    0.417
10099 OH2 0.993 44.168 22.505 oh 1339 TIP3_1339   -0.834
10100 H1 1.711 44.862 22.522 ho 1339 TIP3_1339    0.417
10101 H2 1.120 43.787 23.380 ho 1339 TIP3_1339    0.417
10102 OH2 14.330 46.488 21.372 oh 1340 TIP3_1340   -0.834
10103 H1 13.607 46.679 20.738 ho 1340 TIP3_1340    0.417
10104 H2 14.819 45.738 20.944 ho 1340 TIP3_1340    0.417
10105 OH2 2.810 38.910 29.602 oh 1341 TIP3_1341   -0.834
10106 H1 1.862 38.676 29.477 ho 1341 TIP3_1341    0.417
10107 H2 2.831 39.639 30.225 ho 1341 TIP3_1341    0.417
10108 OH2 9.517 39.696 36.743 oh 1342 TIP3_1342   -0.834
10109 H1 9.017 39.210 37.367 ho 1342 TIP3_1342    0.417
10110 H2 10.388 39.222 36.645 ho 1342 TIP3_1342    0.417
10111 OH2 8.027 47.407 37.979 oh 1343 TIP3_1343   -0.834
10112 H1 7.840 46.573 37.487 ho 1343 TIP3_1343    0.417
10113 H2 8.395 47.972 37.299 ho 1343 TIP3_1343    0.417
10114 OH2 3.308 32.751 36.620 oh 1344 TIP3_1344   -0.834
10115 H1 3.564 31.825 36.336 ho 1344 TIP3_1344    0.417
10116 H2 3.125 32.651 37.560 ho 1344 TIP3_1344    0.417
10117 OH2 19.106 31.572 34.355 oh 1345 TIP3_1345   -0.834
10118 H1 18.789 32.317 33.858 ho 1345 TIP3_1345    0.417
10119 H2 19.652 31.063 33.714 ho 1345 TIP3_1345    0.417
10120 OH2 17.993 53.480 24.744 oh 1346 TIP3_1346   -0.834
10121 H1 17.511 52.612 24.847 ho 1346 TIP3_1346    0.417
10122 H2 17.300 54.148 24.550 ho 1346 TIP3_1346    0.417
10123 OH2 7.614 37.969 24.450 oh 1347 TIP3_1347   -0.834
10124 H1 8.076 38.715 24.871 ho 1347 TIP3_1347    0.417
10125 H2 7.315 37.449 25.232 ho 1347 TIP3_1347    0.417
10126 OH2 4.290 29.425 37.812 oh 1348 TIP3_1348   -0.834
10127 H1 4.842 29.097 37.118 ho 1348 TIP3_1348    0.417
10128 H2 3.399 29.013 37.578 ho 1348 TIP3_1348    0.417
10129 OH2 10.108 37.850 21.526 oh 1349 TIP3_1349   -0.834
10130 H1 9.334 37.413 21.140 ho 1349 TIP3_1349    0.417
10131 H2 10.508 37.103 22.032 ho 1349 TIP3_1349    0.417
10132 OH2 14.043 45.480 29.514 oh 1350 TIP3_1350   -0.834
10133 H1 14.347 44.572 29.577 ho 1350 TIP3_1350    0.417
10134 H2 14.763 45.868 29.080 ho 1350 TIP3_1350    0.417
10135 OH2 17.248 52.118 36.933 oh 1351 TIP3_1351   -0.834
10136 H1 17.128 52.046 35.958 ho 1351 TIP3_1351    0.417
10137 H2 17.647 51.300 37.205 ho 1351 TIP3_1351    0.417
10138 OH2 16.470 51.179 24.981 oh 1352 TIP3_1352   -0.834
10139 H1 15.687 50.867 25.508 ho 1352 TIP3_1352    0.417
10140 H2 16.103 51.145 24.033 ho 1352 TIP3_1352    0.417
10141 OH2 19.766 50.206 34.908 oh 1353 TIP3_1353   -0.834
10142 H1 20.017 50.061 33.935 ho 1353 TIP3_1353    0.417
10143 H2 18.951 50.727 34.824 ho 1353 TIP3_1353    0.417
10144 OH2 7.725 41.948 33.403 oh 1354 TIP3_1354   -0.834
10145 H1 8.444 41.302 33.373 ho 1354 TIP3_1354    0.417
10146 H2 8.212 42.808 33.285 ho 1354 TIP3_1354    0.417
10147 OH2 5.434 35.705 38.688 oh 1355 TIP3_1355   -0.834
10148 H1 4.617 35.193 38.597 ho 1355 TIP3_1355    0.417
10149 H2 5.536 35.753 39.653 ho 1355 TIP3_1355    0.417
10150 OH2 20.707 38.177 29.370 oh 1356 TIP3_1356   -0.834
10151 H1 21.469 38.748 28.964 ho 1356 TIP3_1356    0.417
10152 H2 20.131 37.992 28.630 ho 1356 TIP3_1356    0.417
10153 OH2 5.680 48.011 28.967 oh 1357 TIP3_1357   -0.834
10154 H1 5.863 48.667 29.640 ho 1357 TIP3_1357    0.417
10155 H2 5.122 47.449 29.559 ho 1357 TIP3_1357    0.417
10156 OH2 18.741 54.513 27.858 oh 1358 TIP3_1358   -0.834
10157 H1 19.065 55.060 28.586 ho 1358 TIP3_1358    0.417
10158 H2 18.923 55.117 27.130 ho 1358 TIP3_1358    0.417
10159 OH2 7.696 44.274 22.028 oh 1359 TIP3_1359   -0.834
10160 H1 7.471 45.012 21.404 ho 1359 TIP3_1359    0.417
10161 H2 8.243 43.739 21.486 ho 1359 TIP3_1359    0.417
10162 OH2 24.083 57.049 30.603 oh 1360 TIP3_1360   -0.834
10163 H1 23.865 57.313 31.431 ho 1360 TIP3_1360    0.417
10164 H2 23.591 56.212 30.505 ho 1360 TIP3_1360    0.417
10165 OH2 19.538 38.489 38.509 oh 1361 TIP3_1361   -0.834
10166 H1 18.734 38.679 38.007 ho 1361 TIP3_1361    0.417
10167 H2 19.131 38.588 39.410 ho 1361 TIP3_1361    0.417
10168 OH2 12.443 49.171 33.230 oh 1362 TIP3_1362   -0.834
10169 H1 11.966 49.983 33.016 ho 1362 TIP3_1362    0.417
10170 H2 12.263 48.629 32.451 ho 1362 TIP3_1362    0.417
10171 OH2 11.686 40.463 30.939 oh 1363 TIP3_1363   -0.834
10172 H1 10.907 39.977 30.996 ho 1363 TIP3_1363    0.417
10173 H2 12.050 40.059 30.080 ho 1363 TIP3_1363    0.417
10174 OH2 14.063 39.097 35.938 oh 1364 TIP3_1364   -0.834
10175 H1 13.356 39.461 35.381 ho 1364 TIP3_1364    0.417
10176 H2 13.874 39.425 36.836 ho 1364 TIP3_1364    0.417
10177 OH2 12.038 29.237 35.789 oh 1365 TIP3_1365   -0.834
10178 H1 12.927 29.538 35.479 ho 1365 TIP3_1365    0.417
10179 H2 11.566 30.050 35.646 ho 1365 TIP3_1365    0.417
10180 OH2 8.476 29.840 34.281 oh 1366 TIP3_1366   -0.834
10181 H1 8.896 29.660 35.094 ho 1366 TIP3_1366    0.417
10182 H2 8.229 28.926 34.090 ho 1366 TIP3_1366    0.417
10183 OH2 11.637 28.962 38.592 oh 1367 TIP3_1367   -0.834
10184 H1 12.082 29.750 38.965 ho 1367 TIP3_1367    0.417
10185 H2 12.123 28.912 37.702 ho 1367 TIP3_1367    0.417
10186 OH2 15.848 27.094 21.431 oh 1368 TIP3_1368   -0.834
10187 H1 15.822 27.959 21.964 ho 1368 TIP3_1368    0.417
10188 H2 16.515 26.602 21.930 ho 1368 TIP3_1368    0.417
10189 OH2 13.442 30.982 29.209 oh 1369 TIP3_1369   -0.834
10190 H1 13.510 30.195 29.800 ho 1369 TIP3_1369    0.417
10191 H2 14.384 30.978 28.913 ho 1369 TIP3_1369    0.417
10192 OH2 0.948 50.182 32.814 oh 1370 TIP3_1370   -0.834
10193 H1 0.997 49.870 31.906 ho 1370 TIP3_1370    0.417
10194 H2 0.233 49.634 33.289 ho 1370 TIP3_1370    0.417
10195 OH2 16.511 47.522 29.772 oh 1371 TIP3_1371   -0.834
10196 H1 16.212 48.415 29.547 ho 1371 TIP3_1371    0.417
10197 H2 17.434 47.488 29.434 ho 1371 TIP3_1371    0.417
10198 OH2 19.990 33.594 22.023 oh 1372 TIP3_1372   -0.834
10199 H1 19.570 34.157 21.312 ho 1372 TIP3_1372    0.417
10200 H2 20.761 33.123 21.627 ho 1372 TIP3_1372    0.417
10201 OH2 5.763 41.172 24.096 oh 1373 TIP3_1373   -0.834
10202 H1 5.877 41.189 25.052 ho 1373 TIP3_1373    0.417
10203 H2 5.698 42.081 23.858 ho 1373 TIP3_1373    0.417
10204 OH2 6.683 41.800 38.786 oh 1374 TIP3_1374   -0.834
10205 H1 7.318 42.380 39.196 ho 1374 TIP3_1374    0.417
10206 H2 6.964 41.758 37.801 ho 1374 TIP3_1374    0.417
10207 OH2 20.512 42.034 36.517 oh 1375 TIP3_1375   -0.834
10208 H1 21.434 42.328 36.347 ho 1375 TIP3_1375    0.417
10209 H2 19.980 42.682 36.042 ho 1375 TIP3_1375    0.417
10210 OH2 20.223 32.100 27.085 oh 1376 TIP3_1376   -0.834
10211 H1 21.062 32.611 26.981 ho 1376 TIP3_1376    0.417
10212 H2 20.344 31.577 27.892 ho 1376 TIP3_1376    0.417
10213 OH2 18.157 33.615 32.909 oh 1377 TIP3_1377   -0.834
10214 H1 17.685 33.384 32.075 ho 1377 TIP3_1377    0.417
10215 H2 17.799 34.492 33.130 ho 1377 TIP3_1377    0.417
10216 OH2 9.749 54.569 22.698 oh 1378 TIP3_1378   -0.834
10217 H1 9.467 55.394 23.127 ho 1378 TIP3_1378    0.417
10218 H2 9.599 54.655 21.726 ho 1378 TIP3_1378    0.417
10219 OH2 4.532 36.514 26.092 oh 1379 TIP3_1379   -0.834
10220 H1 5.038 37.278 26.210 ho 1379 TIP3_1379    0.417
10221 H2 4.797 36.434 25.163 ho 1379 TIP3_1379    0.417
10222 OH2 7.574 39.365 39.910 oh 1380 TIP3_1380   -0.834
10223 H1 6.973 38.636 39.823 ho 1380 TIP3_1380    0.417
10224 H2 7.103 40.079 39.531 ho 1380 TIP3_1380    0.417
10225 OH2 7.349 37.016 36.871 oh 1381 TIP3_1381   -0.834
10226 H1 6.652 36.617 37.449 ho 1381 TIP3_1381    0.417
10227 H2 8.149 36.926 37.424 ho 1381 TIP3_1381    0.417
10228 OH2 22.111 51.948 23.807 oh 1382 TIP3_1382   -0.834
10229 H1 22.607 51.433 24.417 ho 1382 TIP3_1382    0.417
10230 H2 22.366 51.647 22.939 ho 1382 TIP3_1382    0.417
10231 OH2 3.064 41.948 34.178 oh 1383 TIP3_1383   -0.834
10232 H1 3.687 41.682 34.847 ho 1383 TIP3_1383    0.417
10233 H2 3.126 41.257 33.508 ho 1383 TIP3_1383    0.417
10234 OH2 8.590 49.057 35.764 oh 1384 TIP3_1384   -0.834
10235 H1 9.102 48.354 35.348 ho 1384 TIP3_1384    0.417
10236 H2 7.721 48.865 35.342 ho 1384 TIP3_1384    0.417
10237 OH2 17.457 29.368 37.908 oh 1385 TIP3_1385   -0.834
10238 H1 17.139 30.306 37.875 ho 1385 TIP3_1385    0.417
10239 H2 18.209 29.444 38.536 ho 1385 TIP3_1385    0.417
10240 OH2 10.415 30.313 25.056 oh 1386 TIP3_1386   -0.834
10241 H1 10.828 30.511 24.192 ho 1386 TIP3_1386    0.417
10242 H2 10.652 31.117 25.543 ho 1386 TIP3_1386    0.417
10243 OH2 16.015 44.991 35.706 oh 1387 TIP3_1387   -0.834
10244 H1 15.466 44.667 36.424 ho 1387 TIP3_1387    0.417
10245 H2 15.471 44.677 34.919 ho 1387 TIP3_1387    0.417
10246 OH2 15.175 40.056 25.835 oh 1388 TIP3_1388   -0.834
10247 H1 14.250 40.224 26.042 ho 1388 TIP3_1388    0.417
10248 H2 15.604 40.463 26.567 ho 1388 TIP3_1388    0.417
10249 OH2 17.092 40.908 38.150 oh 1389 TIP3_1389   -0.834
10250 H1 17.380 41.785 37.799 ho 1389 TIP3_1389    0.417
10251 H2 17.328 41.006 39.104 ho 1389 TIP3_1389    0.417
10252 OH2 16.761 27.778 29.726 oh 1390 TIP3_1390   -0.834
10253 H1 17.032 27.482 28.877 ho 1390 TIP3_1390    0.417
10254 H2 17.008 27.064 30.337 ho 1390 TIP3_1390    0.417
10255 OH2 5.420 54.661 25.156 oh 1391 TIP3_1391   -0.834
10256 H1 5.371 54.862 24.251 ho 1391 TIP3_1391    0.417
10257 H2 4.683 54.033 25.242 ho 1391 TIP3_1391    0.417
10258 OH2 49.291 19.899 28.142 oh 1392 TIP3_1392   -0.834
10259 H1 49.073 20.356 28.980 ho 1392 TIP3_1392    0.417
10260 H2 49.939 20.464 27.736 ho 1392 TIP3_1392    0.417
10261 OH2 26.612 7.495 29.954 oh 1393 TIP3_1393   -0.834
10262 H1 26.924 6.828 30.601 ho 1393 TIP3_1393    0.417
10263 H2 25.678 7.557 30.150 ho 1393 TIP3_1393    0.417
10264 OH2 45.076 15.741 25.215 oh 1394 TIP3_1394   -0.834
10265 H1 45.272 16.431 24.550 ho 1394 TIP3_1394    0.417
10266 H2 45.815 15.769 25.961 ho 1394 TIP3_1394    0.417
10267 OH2 34.844 0.169 22.952 oh 1395 TIP3_1395   -0.834
10268 H1 34.135 -0.121 23.530 ho 1395 TIP3_1395    0.417
10269 H2 34.959 1.140 23.063 ho 1395 TIP3_1395    0.417
10270 OH2 33.233 13.772 28.755 oh 1396 TIP3_1396   -0.834
10271 H1 33.799 13.275 29.307 ho 1396 TIP3_1396    0.417
10272 H2 32.918 14.471 29.376 ho 1396 TIP3_1396    0.417
10273 OH2 40.113 9.268 32.854 oh 1397 TIP3_1397   -0.834
10274 H1 39.550 8.507 33.075 ho 1397 TIP3_1397    0.417
10275 H2 40.189 9.702 33.734 ho 1397 TIP3_1397    0.417
10276 OH2 39.690 23.915 26.657 oh 1398 TIP3_1398   -0.834
10277 H1 39.152 24.656 27.087 ho 1398 TIP3_1398    0.417
10278 H2 40.569 24.297 26.585 ho 1398 TIP3_1398    0.417
10279 OH2 33.041 19.531 38.896 oh 1399 TIP3_1399   -0.834
10280 H1 32.739 20.488 38.924 ho 1399 TIP3_1399    0.417
10281 H2 33.474 19.495 39.757 ho 1399 TIP3_1399    0.417
10282 OH2 35.209 1.935 27.392 oh 1400 TIP3_1400   -0.834
10283 H1 34.397 2.288 26.940 ho 1400 TIP3_1400    0.417
10284 H2 35.523 2.672 28.044 ho 1400 TIP3_1400    0.417
10285 OH2 29.529 16.068 26.788 oh 1401 TIP3_1401   -0.834
10286 H1 29.799 15.167 26.512 ho 1401 TIP3_1401    0.417
10287 H2 28.519 15.998 26.612 ho 1401 TIP3_1401    0.417
10288 OH2 41.657 13.461 32.393 oh 1402 TIP3_1402   -0.834
10289 H1 42.348 12.883 32.767 ho 1402 TIP3_1402    0.417
10290 H2 42.133 14.239 32.119 ho 1402 TIP3_1402    0.417
10291 OH2 45.360 13.907 34.588 oh 1403 TIP3_1403   -0.834
10292 H1 44.670 13.507 34.061 ho 1403 TIP3_1403    0.417
10293 H2 46.196 13.705 34.064 ho 1403 TIP3_1403    0.417
10294 OH2 28.352 11.042 22.416 oh 1404 TIP3_1404   -0.834
10295 H1 28.133 11.826 22.948 ho 1404 TIP3_1404    0.417
10296 H2 27.588 10.394 22.581 ho 1404 TIP3_1404    0.417
10297 OH2 33.203 22.561 36.870 oh 1405 TIP3_1405   -0.834
10298 H1 33.088 22.437 37.795 ho 1405 TIP3_1405    0.417
10299 H2 34.001 23.123 36.810 ho 1405 TIP3_1405    0.417
10300 OH2 26.331 11.142 28.121 oh 1406 TIP3_1406   -0.834
10301 H1 25.365 11.131 28.383 ho 1406 TIP3_1406    0.417
10302 H2 26.672 10.284 28.453 ho 1406 TIP3_1406    0.417
10303 OH2 25.399 17.732 22.003 oh 1407 TIP3_1407   -0.834
10304 H1 25.319 16.791 22.261 ho 1407 TIP3_1407    0.417
10305 H2 25.392 17.713 21.056 ho 1407 TIP3_1407    0.417
10306 OH2 35.911 20.480 32.914 oh 1408 TIP3_1408   -0.834
10307 H1 36.787 20.457 32.470 ho 1408 TIP3_1408    0.417
10308 H2 35.352 19.972 32.322 ho 1408 TIP3_1408    0.417
10309 OH2 33.932 2.387 33.428 oh 1409 TIP3_1409   -0.834
10310 H1 33.209 2.019 34.031 ho 1409 TIP3_1409    0.417
10311 H2 34.762 1.895 33.633 ho 1409 TIP3_1409    0.417
10312 OH2 39.757 16.859 31.538 oh 1410 TIP3_1410   -0.834
10313 H1 40.038 17.594 30.927 ho 1410 TIP3_1410    0.417
10314 H2 39.273 16.313 30.931 ho 1410 TIP3_1410    0.417
10315 OH2 26.606 22.334 30.760 oh 1411 TIP3_1411   -0.834
10316 H1 27.072 21.480 30.597 ho 1411 TIP3_1411    0.417
10317 H2 27.317 22.972 30.733 ho 1411 TIP3_1411    0.417
10318 OH2 27.860 15.978 37.375 oh 1412 TIP3_1412   -0.834
10319 H1 27.369 16.313 38.172 ho 1412 TIP3_1412    0.417
10320 H2 27.401 16.374 36.620 ho 1412 TIP3_1412    0.417
10321 OH2 44.038 10.368 22.831 oh 1413 TIP3_1413   -0.834
10322 H1 44.105 9.568 23.416 ho 1413 TIP3_1413    0.417
10323 H2 44.408 11.071 23.400 ho 1413 TIP3_1413    0.417
10324 OH2 48.782 14.218 38.513 oh 1414 TIP3_1414   -0.834
10325 H1 48.139 14.036 37.783 ho 1414 TIP3_1414    0.417
10326 H2 49.011 13.329 38.813 ho 1414 TIP3_1414    0.417
10327 OH2 36.062 4.274 29.606 oh 1415 TIP3_1415   -0.834
10328 H1 35.233 4.104 30.092 ho 1415 TIP3_1415    0.417
10329 H2 36.736 4.011 30.259 ho 1415 TIP3_1415    0.417
10330 OH2 38.275 7.072 24.010 oh 1416 TIP3_1416   -0.834
10331 H1 37.929 7.985 24.197 ho 1416 TIP3_1416    0.417
10332 H2 39.106 7.128 24.463 ho 1416 TIP3_1416    0.417
10333 OH2 45.958 17.715 29.017 oh 1417 TIP3_1417   -0.834
10334 H1 46.161 18.671 28.771 ho 1417 TIP3_1417    0.417
10335 H2 44.984 17.759 28.948 ho 1417 TIP3_1417    0.417
10336 OH2 48.181 4.710 25.247 oh 1418 TIP3_1418   -0.834
10337 H1 48.750 5.343 24.731 ho 1418 TIP3_1418    0.417
10338 H2 47.441 4.528 24.712 ho 1418 TIP3_1418    0.417
10339 OH2 47.263 13.788 29.391 oh 1419 TIP3_1419   -0.834
10340 H1 48.127 14.127 29.253 ho 1419 TIP3_1419    0.417
10341 H2 46.659 14.087 28.585 ho 1419 TIP3_1419    0.417
10342 OH2 27.763 1.896 37.724 oh 1420 TIP3_1420   -0.834
10343 H1 28.401 1.364 37.164 ho 1420 TIP3_1420    0.417
10344 H2 27.751 2.725 37.279 ho 1420 TIP3_1420    0.417
10345 OH2 31.390 4.666 32.590 oh 1421 TIP3_1421   -0.834
10346 H1 31.789 4.750 31.711 ho 1421 TIP3_1421    0.417
10347 H2 30.913 5.472 32.661 ho 1421 TIP3_1421    0.417
10348 OH2 30.555 6.449 28.044 oh 1422 TIP3_1422   -0.834
10349 H1 30.958 7.299 28.136 ho 1422 TIP3_1422    0.417
10350 H2 31.036 5.896 28.635 ho 1422 TIP3_1422    0.417
10351 OH2 28.642 16.792 33.401 oh 1423 TIP3_1423   -0.834
10352 H1 27.938 16.972 34.005 ho 1423 TIP3_1423    0.417
10353 H2 28.801 15.840 33.523 ho 1423 TIP3_1423    0.417
10354 OH2 42.216 18.960 34.799 oh 1424 TIP3_1424   -0.834
10355 H1 43.146 18.550 34.708 ho 1424 TIP3_1424    0.417
10356 H2 42.317 19.816 34.384 ho 1424 TIP3_1424    0.417
10357 OH2 29.056 19.465 37.916 oh 1425 TIP3_1425   -0.834
10358 H1 29.416 19.916 38.646 ho 1425 TIP3_1425    0.417
10359 H2 29.896 19.353 37.363 ho 1425 TIP3_1425    0.417
10360 OH2 32.234 20.628 27.615 oh 1426 TIP3_1426   -0.834
10361 H1 32.817 20.255 26.948 ho 1426 TIP3_1426    0.417
10362 H2 32.811 21.302 27.976 ho 1426 TIP3_1426    0.417
10363 OH2 29.716 3.389 26.378 oh 1427 TIP3_1427   -0.834
10364 H1 28.999 3.738 26.910 ho 1427 TIP3_1427    0.417
10365 H2 29.567 2.411 26.428 ho 1427 TIP3_1427    0.417
10366 OH2 29.879 9.045 35.417 oh 1428 TIP3_1428   -0.834
10367 H1 30.183 9.410 34.557 ho 1428 TIP3_1428    0.417
10368 H2 30.355 9.696 36.053 ho 1428 TIP3_1428    0.417
10369 OH2 32.402 3.660 35.781 oh 1429 TIP3_1429   -0.834
10370 H1 31.609 4.153 35.953 ho 1429 TIP3_1429    0.417
10371 H2 32.637 3.912 34.906 ho 1429 TIP3_1429    0.417
10372 OH2 44.832 4.792 30.940 oh 1430 TIP3_1430   -0.834
10373 H1 45.273 5.362 31.613 ho 1430 TIP3_1430    0.417
10374 H2 44.367 4.183 31.469 ho 1430 TIP3_1430    0.417
10375 OH2 28.643 20.468 31.653 oh 1431 TIP3_1431   -0.834
10376 H1 28.726 21.140 32.306 ho 1431 TIP3_1431    0.417
10377 H2 29.449 19.957 31.725 ho 1431 TIP3_1431    0.417
10378 OH2 42.146 15.723 38.949 oh 1432 TIP3_1432   -0.834
10379 H1 42.875 15.782 38.309 ho 1432 TIP3_1432    0.417
10380 H2 41.536 16.408 38.621 ho 1432 TIP3_1432    0.417
10381 OH2 42.732 20.776 38.662 oh 1433 TIP3_1433   -0.834
10382 H1 43.560 20.755 38.164 ho 1433 TIP3_1433    0.417
10383 H2 42.025 20.914 38.058 ho 1433 TIP3_1433    0.417
10384 OH2 31.184 9.140 29.474 oh 1434 TIP3_1434   -0.834
10385 H1 30.743 9.819 28.892 ho 1434 TIP3_1434    0.417
10386 H2 30.506 8.825 30.039 ho 1434 TIP3_1434    0.417
10387 OH2 46.975 5.136 28.786 oh 1435 TIP3_1435   -0.834
10388 H1 46.739 4.870 29.662 ho 1435 TIP3_1435    0.417
10389 H2 46.767 6.134 28.697 ho 1435 TIP3_1435    0.417
10390 OH2 41.470 3.089 27.601 oh 1436 TIP3_1436   -0.834
10391 H1 41.854 2.230 27.919 ho 1436 TIP3_1436    0.417
10392 H2 40.533 2.856 27.508 ho 1436 TIP3_1436    0.417
10393 OH2 27.309 5.278 22.894 oh 1437 TIP3_1437   -0.834
10394 H1 27.733 6.105 23.284 ho 1437 TIP3_1437    0.417
10395 H2 27.996 4.624 23.054 ho 1437 TIP3_1437    0.417
10396 OH2 44.161 10.629 39.174 oh 1438 TIP3_1438   -0.834
10397 H1 43.512 10.731 39.875 ho 1438 TIP3_1438    0.417
10398 H2 45.026 10.799 39.632 ho 1438 TIP3_1438    0.417
10399 OH2 27.303 22.534 27.193 oh 1439 TIP3_1439   -0.834
10400 H1 28.243 22.526 27.236 ho 1439 TIP3_1439    0.417
10401 H2 27.096 22.909 26.327 ho 1439 TIP3_1439    0.417
10402 OH2 35.043 11.852 39.132 oh 1440 TIP3_1440   -0.834
10403 H1 35.828 12.292 39.574 ho 1440 TIP3_1440    0.417
10404 H2 34.329 12.362 39.365 ho 1440 TIP3_1440    0.417
10405 OH2 38.476 19.820 31.349 oh 1441 TIP3_1441   -0.834
10406 H1 38.852 19.131 31.887 ho 1441 TIP3_1441    0.417
10407 H2 38.927 19.783 30.502 ho 1441 TIP3_1441    0.417
10408 OH2 40.581 3.901 34.361 oh 1442 TIP3_1442   -0.834
10409 H1 40.875 4.699 33.965 ho 1442 TIP3_1442    0.417
10410 H2 41.377 3.333 34.327 ho 1442 TIP3_1442    0.417
10411 OH2 38.880 7.413 34.473 oh 1443 TIP3_1443   -0.834
10412 H1 38.113 7.809 34.874 ho 1443 TIP3_1443    0.417
10413 H2 38.540 6.667 33.872 ho 1443 TIP3_1443    0.417
10414 OH2 32.367 9.758 21.050 oh 1444 TIP3_1444   -0.834
10415 H1 32.873 8.930 21.286 ho 1444 TIP3_1444    0.417
10416 H2 31.444 9.472 21.182 ho 1444 TIP3_1444    0.417
10417 OH2 27.520 5.670 31.677 oh 1445 TIP3_1445   -0.834
10418 H1 27.672 4.751 31.857 ho 1445 TIP3_1445    0.417
10419 H2 27.416 6.150 32.564 ho 1445 TIP3_1445    0.417
10420 OH2 29.098 2.516 29.861 oh 1446 TIP3_1446   -0.834
10421 H1 28.869 1.827 30.484 ho 1446 TIP3_1446    0.417
10422 H2 30.084 2.574 30.012 ho 1446 TIP3_1446    0.417
10423 OH2 48.350 0.426 28.068 oh 1447 TIP3_1447   -0.834
10424 H1 49.136 0.667 27.495 ho 1447 TIP3_1447    0.417
10425 H2 47.685 1.158 27.769 ho 1447 TIP3_1447    0.417
10426 OH2 33.569 0.684 37.631 oh 1448 TIP3_1448   -0.834
10427 H1 34.123 0.542 38.435 ho 1448 TIP3_1448    0.417
10428 H2 33.805 1.595 37.347 ho 1448 TIP3_1448    0.417
10429 OH2 40.732 3.840 30.373 oh 1449 TIP3_1449   -0.834
10430 H1 39.792 4.023 30.232 ho 1449 TIP3_1449    0.417
10431 H2 40.905 3.211 29.663 ho 1449 TIP3_1449    0.417
10432 OH2 27.083 3.332 32.745 oh 1450 TIP3_1450   -0.834
10433 H1 26.558 3.514 33.535 ho 1450 TIP3_1450    0.417
10434 H2 26.496 2.737 32.230 ho 1450 TIP3_1450    0.417
10435 OH2 41.246 13.545 37.319 oh 1451 TIP3_1451   -0.834
10436 H1 40.471 13.979 36.907 ho 1451 TIP3_1451    0.417
10437 H2 41.619 14.257 37.857 ho 1451 TIP3_1451    0.417
10438 OH2 30.455 24.518 34.694 oh 1452 TIP3_1452   -0.834
10439 H1 30.131 24.273 35.590 ho 1452 TIP3_1452    0.417
10440 H2 29.728 24.934 34.293 ho 1452 TIP3_1452    0.417
10441 OH2 32.301 10.078 25.053 oh 1453 TIP3_1453   -0.834
10442 H1 32.638 9.350 25.609 ho 1453 TIP3_1453    0.417
10443 H2 32.701 10.912 25.492 ho 1453 TIP3_1453    0.417
10444 OH2 35.178 17.338 38.050 oh 1454 TIP3_1454   -0.834
10445 H1 34.615 17.051 38.803 ho 1454 TIP3_1454    0.417
10446 H2 34.650 16.952 37.297 ho 1454 TIP3_1454    0.417
10447 OH2 25.995 3.021 35.435 oh 1455 TIP3_1455   -0.834
10448 H1 25.013 2.981 35.463 ho 1455 TIP3_1455    0.417
10449 H2 26.298 2.119 35.683 ho 1455 TIP3_1455    0.417
10450 OH2 44.236 7.819 35.311 oh 1456 TIP3_1456   -0.834
10451 H1 44.107 7.085 34.773 ho 1456 TIP3_1456    0.417
10452 H2 44.087 7.479 36.176 ho 1456 TIP3_1456    0.417
10453 OH2 36.596 8.885 21.467 oh 1457 TIP3_1457   -0.834
10454 H1 36.928 8.990 22.384 ho 1457 TIP3_1457    0.417
10455 H2 37.283 9.223 20.833 ho 1457 TIP3_1457    0.417
10456 OH2 34.992 10.829 28.717 oh 1458 TIP3_1458   -0.834
10457 H1 34.987 11.093 27.758 ho 1458 TIP3_1458    0.417
10458 H2 35.930 10.998 28.899 ho 1458 TIP3_1458    0.417
10459 OH2 37.162 12.850 29.411 oh 1459 TIP3_1459   -0.834
10460 H1 37.834 13.534 29.755 ho 1459 TIP3_1459    0.417
10461 H2 36.316 13.141 29.861 ho 1459 TIP3_1459    0.417
10462 OH2 38.102 4.392 31.733 oh 1460 TIP3_1460   -0.834
10463 H1 38.204 5.236 31.370 ho 1460 TIP3_1460    0.417
10464 H2 38.273 4.565 32.681 ho 1460 TIP3_1460    0.417
10465 OH2 40.754 8.645 36.564 oh 1461 TIP3_1461   -0.834
10466 H1 40.476 8.296 35.724 ho 1461 TIP3_1461    0.417
10467 H2 41.717 8.556 36.458 ho 1461 TIP3_1461    0.417
10468 OH2 39.528 6.368 20.958 oh 1462 TIP3_1462   -0.834
10469 H1 40.313 5.944 21.231 ho 1462 TIP3_1462    0.417
10470 H2 39.078 6.480 21.778 ho 1462 TIP3_1462    0.417
10471 OH2 43.819 3.973 25.087 oh 1463 TIP3_1463   -0.834
10472 H1 43.100 3.428 24.802 ho 1463 TIP3_1463    0.417
10473 H2 44.007 3.885 26.030 ho 1463 TIP3_1463    0.417
10474 OH2 34.334 18.306 31.422 oh 1464 TIP3_1464   -0.834
10475 H1 34.855 17.694 30.841 ho 1464 TIP3_1464    0.417
10476 H2 33.670 18.593 30.784 ho 1464 TIP3_1464    0.417
10477 OH2 25.899 2.856 23.995 oh 1465 TIP3_1465   -0.834
10478 H1 26.192 3.631 23.510 ho 1465 TIP3_1465    0.417
10479 H2 25.149 3.180 24.510 ho 1465 TIP3_1465    0.417
10480 OH2 41.420 11.033 22.520 oh 1466 TIP3_1466   -0.834
10481 H1 41.409 11.766 21.905 ho 1466 TIP3_1466    0.417
10482 H2 42.414 10.880 22.573 ho 1466 TIP3_1466    0.417
10483 OH2 29.272 19.300 25.842 oh 1467 TIP3_1467   -0.834
10484 H1 29.284 18.497 26.419 ho 1467 TIP3_1467    0.417
10485 H2 29.610 19.016 24.976 ho 1467 TIP3_1467    0.417
10486 OH2 38.841 14.123 35.910 oh 1468 TIP3_1468   -0.834
10487 H1 39.262 14.328 35.083 ho 1468 TIP3_1468    0.417
10488 H2 38.357 14.915 36.146 ho 1468 TIP3_1468    0.417
10489 OH2 38.185 20.713 24.600 oh 1469 TIP3_1469   -0.834
10490 H1 39.022 20.239 24.565 ho 1469 TIP3_1469    0.417
10491 H2 37.815 20.597 23.742 ho 1469 TIP3_1469    0.417
10492 OH2 31.603 12.068 39.076 oh 1470 TIP3_1470   -0.834
10493 H1 31.848 11.670 39.869 ho 1470 TIP3_1470    0.417
10494 H2 31.714 13.036 39.285 ho 1470 TIP3_1470    0.417
10495 OH2 34.798 14.727 23.571 oh 1471 TIP3_1471   -0.834
10496 H1 34.784 15.459 24.257 ho 1471 TIP3_1471    0.417
10497 H2 35.485 14.201 23.974 ho 1471 TIP3_1471    0.417
10498 OH2 38.380 4.030 28.230 oh 1472 TIP3_1472   -0.834
10499 H1 37.670 4.133 28.906 ho 1472 TIP3_1472    0.417
10500 H2 38.194 4.795 27.602 ho 1472 TIP3_1472    0.417
10501 OH2 47.023 2.254 38.632 oh 1473 TIP3_1473   -0.834
10502 H1 47.008 2.284 37.697 ho 1473 TIP3_1473    0.417
10503 H2 47.707 2.959 38.850 ho 1473 TIP3_1473    0.417
10504 OH2 31.385 0.655 32.903 oh 1474 TIP3_1474   -0.834
10505 H1 31.585 0.839 31.959 ho 1474 TIP3_1474    0.417
10506 H2 30.725 1.337 33.149 ho 1474 TIP3_1474    0.417
10507 OH2 36.334 1.903 36.724 oh 1475 TIP3_1475   -0.834
10508 H1 35.767 2.696 36.995 ho 1475 TIP3_1475    0.417
10509 H2 36.791 1.796 37.508 ho 1475 TIP3_1475    0.417
10510 OH2 31.537 16.660 23.258 oh 1476 TIP3_1476   -0.834
10511 H1 31.664 17.202 22.499 ho 1476 TIP3_1476    0.417
10512 H2 32.016 17.113 23.989 ho 1476 TIP3_1476    0.417
10513 OH2 46.862 2.684 27.114 oh 1477 TIP3_1477   -0.834
10514 H1 46.911 3.691 27.133 ho 1477 TIP3_1477    0.417
10515 H2 45.977 2.455 27.405 ho 1477 TIP3_1477    0.417
10516 OH2 45.293 9.856 26.959 oh 1478 TIP3_1478   -0.834
10517 H1 45.002 9.771 26.026 ho 1478 TIP3_1478    0.417
10518 H2 44.929 9.068 27.385 ho 1478 TIP3_1478    0.417
10519 OH2 47.296 1.862 24.179 oh 1479 TIP3_1479   -0.834
10520 H1 47.019 2.121 25.102 ho 1479 TIP3_1479    0.417
10521 H2 47.121 0.919 24.183 ho 1479 TIP3_1479    0.417
10522 OH2 34.054 7.644 21.377 oh 1480 TIP3_1480   -0.834
10523 H1 34.277 7.083 22.186 ho 1480 TIP3_1480    0.417
10524 H2 34.925 7.894 21.114 ho 1480 TIP3_1480    0.417
10525 OH2 44.876 18.378 36.148 oh 1481 TIP3_1481   -0.834
10526 H1 44.719 19.277 36.479 ho 1481 TIP3_1481    0.417
10527 H2 44.512 17.826 36.830 ho 1481 TIP3_1481    0.417
10528 OH2 49.384 14.335 20.980 oh 1482 TIP3_1482   -0.834
10529 H1 49.223 15.225 20.613 ho 1482 TIP3_1482    0.417
10530 H2 49.084 14.357 21.926 ho 1482 TIP3_1482    0.417
10531 OH2 36.893 8.506 35.861 oh 1483 TIP3_1483   -0.834
10532 H1 36.099 8.627 36.329 ho 1483 TIP3_1483    0.417
10533 H2 37.352 9.369 35.870 ho 1483 TIP3_1483    0.417
10534 OH2 40.742 17.469 25.448 oh 1484 TIP3_1484   -0.834
10535 H1 40.339 18.360 25.546 ho 1484 TIP3_1484    0.417
10536 H2 41.297 17.430 24.655 ho 1484 TIP3_1484    0.417
10537 OH2 28.197 21.123 35.278 oh 1485 TIP3_1485   -0.834
10538 H1 27.312 21.350 34.893 ho 1485 TIP3_1485    0.417
10539 H2 28.265 20.191 35.192 ho 1485 TIP3_1485    0.417
10540 OH2 31.991 15.669 30.569 oh 1486 TIP3_1486   -0.834
10541 H1 31.907 15.886 31.501 ho 1486 TIP3_1486    0.417
10542 H2 31.242 16.160 30.143 ho 1486 TIP3_1486    0.417
10543 OH2 45.476 10.705 30.065 oh 1487 TIP3_1487   -0.834
10544 H1 44.680 10.570 29.506 ho 1487 TIP3_1487    0.417
10545 H2 45.828 11.523 29.722 ho 1487 TIP3_1487    0.417
10546 OH2 41.037 5.640 26.848 oh 1488 TIP3_1488   -0.834
10547 H1 41.257 4.742 26.943 ho 1488 TIP3_1488    0.417
10548 H2 40.891 5.862 27.807 ho 1488 TIP3_1488    0.417
10549 OH2 45.704 24.012 30.994 oh 1489 TIP3_1489   -0.834
10550 H1 46.272 24.652 31.449 ho 1489 TIP3_1489    0.417
10551 H2 44.977 23.934 31.615 ho 1489 TIP3_1489    0.417
10552 OH2 36.049 15.216 32.910 oh 1490 TIP3_1490   -0.834
10553 H1 36.572 15.731 33.543 ho 1490 TIP3_1490    0.417
10554 H2 35.082 15.531 33.079 ho 1490 TIP3_1490    0.417
10555 OH2 34.637 6.703 37.781 oh 1491 TIP3_1491   -0.834
10556 H1 34.551 7.630 37.451 ho 1491 TIP3_1491    0.417
10557 H2 35.377 6.806 38.447 ho 1491 TIP3_1491    0.417
10558 OH2 37.371 4.653 37.310 oh 1492 TIP3_1492   -0.834
10559 H1 38.310 4.891 37.405 ho 1492 TIP3_1492    0.417
10560 H2 36.978 5.381 37.826 ho 1492 TIP3_1492    0.417
10561 OH2 42.995 0.202 35.842 oh 1493 TIP3_1493   -0.834
10562 H1 43.853 0.548 35.681 ho 1493 TIP3_1493    0.417
10563 H2 43.158 -0.558 36.493 ho 1493 TIP3_1493    0.417
10564 OH2 33.117 8.380 27.688 oh 1494 TIP3_1494   -0.834
10565 H1 32.585 8.594 28.412 ho 1494 TIP3_1494    0.417
10566 H2 33.857 9.005 27.892 ho 1494 TIP3_1494    0.417
10567 OH2 25.312 0.584 22.045 oh 1495 TIP3_1495   -0.834
10568 H1 25.703 1.440 22.245 ho 1495 TIP3_1495    0.417
10569 H2 26.037 -0.051 21.881 ho 1495 TIP3_1495    0.417
10570 OH2 42.641 17.462 23.266 oh 1496 TIP3_1496   -0.834
10571 H1 42.650 18.023 22.476 ho 1496 TIP3_1496    0.417
10572 H2 43.528 17.697 23.560 ho 1496 TIP3_1496    0.417
10573 OH2 29.474 0.889 21.270 oh 1497 TIP3_1497   -0.834
10574 H1 29.136 0.428 20.501 ho 1497 TIP3_1497    0.417
10575 H2 28.833 0.631 21.946 ho 1497 TIP3_1497    0.417
10576 OH2 32.294 5.336 29.851 oh 1498 TIP3_1498   -0.834
10577 H1 32.542 6.062 30.334 ho 1498 TIP3_1498    0.417
10578 H2 33.120 4.814 29.835 ho 1498 TIP3_1498    0.417
10579 OH2 32.756 5.127 39.271 oh 1499 TIP3_1499   -0.834
10580 H1 33.321 5.781 38.708 ho 1499 TIP3_1499    0.417
10581 H2 31.864 5.405 38.982 ho 1499 TIP3_1499    0.417
10582 OH2 29.109 0.989 35.569 oh 1500 TIP3_1500   -0.834
10583 H1 30.003 0.645 35.770 ho 1500 TIP3_1500    0.417
10584 H2 29.317 1.768 35.003 ho 1500 TIP3_1500    0.417
10585 OH2 42.707 1.353 24.018 oh 1501 TIP3_1501   -0.834
10586 H1 43.462 0.861 24.440 ho 1501 TIP3_1501    0.417
10587 H2 41.923 1.153 24.548 ho 1501 TIP3_1501    0.417
10588 OH2 34.632 10.772 22.777 oh 1502 TIP3_1502   -0.834
10589 H1 34.592 9.959 22.365 ho 1502 TIP3_1502    0.417
10590 H2 33.696 11.020 22.837 ho 1502 TIP3_1502    0.417
10591 OH2 25.755 9.044 38.342 oh 1503 TIP3_1503   -0.834
10592 H1 26.378 9.200 39.076 ho 1503 TIP3_1503    0.417
10593 H2 25.331 8.221 38.648 ho 1503 TIP3_1503    0.417
10594 OH2 27.916 6.913 34.397 oh 1504 TIP3_1504   -0.834
10595 H1 28.773 7.387 34.436 ho 1504 TIP3_1504    0.417
10596 H2 27.225 7.579 34.448 ho 1504 TIP3_1504    0.417
10597 OH2 42.372 20.813 30.447 oh 1505 TIP3_1505   -0.834
10598 H1 43.130 20.722 31.070 ho 1505 TIP3_1505    0.417
10599 H2 41.752 21.462 30.960 ho 1505 TIP3_1505    0.417
10600 OH2 31.636 13.508 34.727 oh 1506 TIP3_1506   -0.834
10601 H1 30.966 13.183 34.243 ho 1506 TIP3_1506    0.417
10602 H2 31.338 14.353 35.174 ho 1506 TIP3_1506    0.417
10603 OH2 34.086 12.628 36.281 oh 1507 TIP3_1507   -0.834
10604 H1 33.601 13.463 36.087 ho 1507 TIP3_1507    0.417
10605 H2 34.195 12.683 37.284 ho 1507 TIP3_1507    0.417
10606 OH2 35.501 12.105 25.009 oh 1508 TIP3_1508   -0.834
10607 H1 34.684 12.450 25.369 ho 1508 TIP3_1508    0.417
10608 H2 35.206 11.551 24.292 ho 1508 TIP3_1508    0.417
10609 OH2 43.150 17.279 29.462 oh 1509 TIP3_1509   -0.834
10610 H1 42.833 16.570 28.920 ho 1509 TIP3_1509    0.417
10611 H2 42.304 17.792 29.616 ho 1509 TIP3_1509    0.417
10612 OH2 47.705 9.717 34.602 oh 1510 TIP3_1510   -0.834
10613 H1 48.278 10.331 34.121 ho 1510 TIP3_1510    0.417
10614 H2 48.304 9.311 35.278 ho 1510 TIP3_1510    0.417
10615 OH2 33.606 15.152 21.095 oh 1511 TIP3_1511   -0.834
10616 H1 33.768 15.018 22.024 ho 1511 TIP3_1511    0.417
10617 H2 34.371 14.852 20.581 ho 1511 TIP3_1511    0.417
10618 OH2 40.586 10.909 38.343 oh 1512 TIP3_1512   -0.834
10619 H1 40.692 11.788 37.979 ho 1512 TIP3_1512    0.417
10620 H2 40.674 10.267 37.569 ho 1512 TIP3_1512    0.417
10621 OH2 40.781 22.794 31.949 oh 1513 TIP3_1513   -0.834
10622 H1 40.939 22.336 32.842 ho 1513 TIP3_1513    0.417
10623 H2 41.224 23.694 32.006 ho 1513 TIP3_1513    0.417
10624 OH2 35.082 9.674 37.354 oh 1514 TIP3_1514   -0.834
10625 H1 35.208 10.123 38.215 ho 1514 TIP3_1514    0.417
10626 H2 34.448 10.288 36.965 ho 1514 TIP3_1514    0.417
10627 OH2 40.017 14.702 21.724 oh 1515 TIP3_1515   -0.834
10628 H1 39.053 14.652 21.639 ho 1515 TIP3_1515    0.417
10629 H2 40.322 13.970 21.132 ho 1515 TIP3_1515    0.417
10630 OH2 27.919 23.423 21.789 oh 1516 TIP3_1516   -0.834
10631 H1 27.213 23.284 21.135 ho 1516 TIP3_1516    0.417
10632 H2 28.625 22.739 21.558 ho 1516 TIP3_1516    0.417
10633 OH2 26.796 10.376 32.378 oh 1517 TIP3_1517   -0.834
10634 H1 25.862 10.378 32.042 ho 1517 TIP3_1517    0.417
10635 H2 27.182 11.170 31.773 ho 1517 TIP3_1517    0.417
10636 OH2 28.440 17.702 30.909 oh 1518 TIP3_1518   -0.834
10637 H1 28.699 17.534 31.807 ho 1518 TIP3_1518    0.417
10638 H2 28.499 18.699 30.862 ho 1518 TIP3_1518    0.417
10639 OH2 31.573 18.668 36.711 oh 1519 TIP3_1519   -0.834
10640 H1 32.305 19.036 37.299 ho 1519 TIP3_1519    0.417
10641 H2 31.727 19.180 35.884 ho 1519 TIP3_1519    0.417
10642 OH2 27.353 23.641 38.049 oh 1520 TIP3_1520   -0.834
10643 H1 28.026 23.092 37.690 ho 1520 TIP3_1520    0.417
10644 H2 27.312 24.384 37.438 ho 1520 TIP3_1520    0.417
10645 OH2 30.112 23.289 37.380 oh 1521 TIP3_1521   -0.834
10646 H1 30.437 22.364 37.470 ho 1521 TIP3_1521    0.417
10647 H2 30.691 23.920 37.843 ho 1521 TIP3_1521    0.417
10648 OH2 43.511 12.143 33.755 oh 1522 TIP3_1522   -0.834
10649 H1 44.070 11.307 33.571 ho 1522 TIP3_1522    0.417
10650 H2 43.207 11.991 34.725 ho 1522 TIP3_1522    0.417
10651 OH2 49.095 23.128 32.362 oh 1523 TIP3_1523   -0.834
10652 H1 48.451 23.814 32.367 ho 1523 TIP3_1523    0.417
10653 H2 48.621 22.452 31.917 ho 1523 TIP3_1523    0.417
10654 OH2 36.428 21.867 30.149 oh 1524 TIP3_1524   -0.834
10655 H1 36.889 21.683 30.983 ho 1524 TIP3_1524    0.417
10656 H2 37.064 21.638 29.477 ho 1524 TIP3_1524    0.417
10657 OH2 27.547 10.847 36.547 oh 1525 TIP3_1525   -0.834
10658 H1 28.122 10.236 36.042 ho 1525 TIP3_1525    0.417
10659 H2 26.734 10.322 36.639 ho 1525 TIP3_1525    0.417
10660 OH2 33.132 20.549 35.107 oh 1526 TIP3_1526   -0.834
10661 H1 32.279 20.725 34.664 ho 1526 TIP3_1526    0.417
10662 H2 33.203 21.280 35.753 ho 1526 TIP3_1526    0.417
10663 OH2 42.527 15.876 27.015 oh 1527 TIP3_1527   -0.834
10664 H1 41.728 16.418 26.760 ho 1527 TIP3_1527    0.417
10665 H2 43.195 16.022 26.337 ho 1527 TIP3_1527    0.417
10666 OH2 41.689 1.229 33.708 oh 1528 TIP3_1528   -0.834
10667 H1 42.192 0.791 34.420 ho 1528 TIP3_1528    0.417
10668 H2 41.002 1.674 34.271 ho 1528 TIP3_1528    0.417
10669 OH2 33.232 17.419 25.121 oh 1529 TIP3_1529   -0.834
10670 H1 33.069 17.033 26.014 ho 1529 TIP3_1529    0.417
10671 H2 34.161 17.648 25.222 ho 1529 TIP3_1529    0.417
10672 OH2 34.258 19.986 22.675 oh 1530 TIP3_1530   -0.834
10673 H1 33.499 19.438 22.349 ho 1530 TIP3_1530    0.417
10674 H2 34.102 20.823 22.230 ho 1530 TIP3_1530    0.417
10675 OH2 37.092 5.140 25.767 oh 1531 TIP3_1531   -0.834
10676 H1 36.122 5.034 25.787 ho 1531 TIP3_1531    0.417
10677 H2 37.223 5.785 25.080 ho 1531 TIP3_1531    0.417
10678 OH2 45.994 13.433 21.571 oh 1532 TIP3_1532   -0.834
10679 H1 45.479 13.258 22.427 ho 1532 TIP3_1532    0.417
10680 H2 46.276 14.386 21.762 ho 1532 TIP3_1532    0.417
10681 OH2 44.263 22.653 34.564 oh 1533 TIP3_1533   -0.834
10682 H1 43.756 22.336 35.314 ho 1533 TIP3_1533    0.417
10683 H2 44.370 23.622 34.746 ho 1533 TIP3_1533    0.417
10684 OH2 44.145 7.320 27.469 oh 1534 TIP3_1534   -0.834
10685 H1 43.988 6.387 27.401 ho 1534 TIP3_1534    0.417
10686 H2 43.252 7.669 27.753 ho 1534 TIP3_1534    0.417
10687 OH2 35.225 2.853 22.912 oh 1535 TIP3_1535   -0.834
10688 H1 35.817 2.801 23.682 ho 1535 TIP3_1535    0.417
10689 H2 35.785 2.736 22.139 ho 1535 TIP3_1535    0.417
10690 OH2 42.905 3.143 31.867 oh 1536 TIP3_1536   -0.834
10691 H1 42.174 3.506 31.381 ho 1536 TIP3_1536    0.417
10692 H2 42.474 2.472 32.399 ho 1536 TIP3_1536    0.417
10693 OH2 46.517 15.999 38.734 oh 1537 TIP3_1537   -0.834
10694 H1 46.682 16.626 38.053 ho 1537 TIP3_1537    0.417
10695 H2 46.503 15.207 38.252 ho 1537 TIP3_1537    0.417
10696 OH2 47.940 9.912 28.103 oh 1538 TIP3_1538   -0.834
10697 H1 48.335 9.036 27.954 ho 1538 TIP3_1538    0.417
10698 H2 47.084 9.834 27.738 ho 1538 TIP3_1538    0.417
10699 OH2 47.436 8.297 23.267 oh 1539 TIP3_1539   -0.834
10700 H1 46.649 8.278 23.824 ho 1539 TIP3_1539    0.417
10701 H2 47.507 9.238 22.970 ho 1539 TIP3_1539    0.417
10702 OH2 34.742 10.426 33.657 oh 1540 TIP3_1540   -0.834
10703 H1 35.233 10.615 34.467 ho 1540 TIP3_1540    0.417
10704 H2 35.423 10.170 32.937 ho 1540 TIP3_1540    0.417
10705 OH2 33.876 3.437 30.998 oh 1541 TIP3_1541   -0.834
10706 H1 34.227 2.577 30.778 ho 1541 TIP3_1541    0.417
10707 H2 33.790 3.398 31.953 ho 1541 TIP3_1541    0.417
10708 OH2 48.196 13.709 33.843 oh 1542 TIP3_1542   -0.834
10709 H1 48.539 12.839 33.537 ho 1542 TIP3_1542    0.417
10710 H2 47.601 14.066 33.094 ho 1542 TIP3_1542    0.417
10711 OH2 31.319 6.624 35.525 oh 1543 TIP3_1543   -0.834
10712 H1 32.087 6.877 34.961 ho 1543 TIP3_1543    0.417
10713 H2 30.764 7.421 35.381 ho 1543 TIP3_1543    0.417
10714 OH2 40.721 19.011 29.605 oh 1544 TIP3_1544   -0.834
10715 H1 41.312 19.709 29.975 ho 1544 TIP3_1544    0.417
10716 H2 40.550 19.419 28.753 ho 1544 TIP3_1544    0.417
10717 OH2 26.428 14.027 27.574 oh 1545 TIP3_1545   -0.834
10718 H1 26.493 14.600 28.431 ho 1545 TIP3_1545    0.417
10719 H2 26.538 13.186 27.927 ho 1545 TIP3_1545    0.417
10720 OH2 45.255 0.983 28.549 oh 1546 TIP3_1546   -0.834
10721 H1 45.472 1.411 29.373 ho 1546 TIP3_1546    0.417
10722 H2 44.868 0.098 28.746 ho 1546 TIP3_1546    0.417
10723 OH2 47.157 1.309 36.075 oh 1547 TIP3_1547   -0.834
10724 H1 47.113 0.340 36.009 ho 1547 TIP3_1547    0.417
10725 H2 46.349 1.567 35.533 ho 1547 TIP3_1547    0.417
10726 OH2 38.460 1.046 23.177 oh 1548 TIP3_1548   -0.834
10727 H1 38.042 1.524 23.883 ho 1548 TIP3_1548    0.417
10728 H2 37.927 1.386 22.395 ho 1548 TIP3_1548    0.417
10729 OH2 38.036 23.514 35.309 oh 1549 TIP3_1549   -0.834
10730 H1 38.912 23.827 35.539 ho 1549 TIP3_1549    0.417
10731 H2 37.818 23.038 36.157 ho 1549 TIP3_1549    0.417
10732 OH2 34.628 24.455 21.574 oh 1550 TIP3_1550   -0.834
10733 H1 34.081 24.920 22.205 ho 1550 TIP3_1550    0.417
10734 H2 35.511 24.904 21.637 ho 1550 TIP3_1550    0.417
10735 OH2 40.293 20.569 27.200 oh 1551 TIP3_1551   -0.834
10736 H1 40.998 21.191 26.920 ho 1551 TIP3_1551    0.417
10737 H2 39.718 21.190 27.706 ho 1551 TIP3_1551    0.417
10738 OH2 30.214 10.728 27.316 oh 1552 TIP3_1552   -0.834
10739 H1 30.747 10.733 26.517 ho 1552 TIP3_1552    0.417
10740 H2 29.589 11.462 27.087 ho 1552 TIP3_1552    0.417
10741 OH2 41.863 6.310 32.762 oh 1553 TIP3_1553   -0.834
10742 H1 42.079 7.272 32.690 ho 1553 TIP3_1553    0.417
10743 H2 42.711 5.861 32.639 ho 1553 TIP3_1553    0.417
10744 OH2 36.134 7.630 29.413 oh 1554 TIP3_1554   -0.834
10745 H1 35.458 7.295 30.142 ho 1554 TIP3_1554    0.417
10746 H2 36.167 8.577 29.540 ho 1554 TIP3_1554    0.417
10747 OH2 41.936 1.039 29.371 oh 1555 TIP3_1555   -0.834
10748 H1 41.552 0.515 30.036 ho 1555 TIP3_1555    0.417
10749 H2 42.731 0.524 29.103 ho 1555 TIP3_1555    0.417
10750 OH2 31.249 2.735 39.088 oh 1556 TIP3_1556   -0.834
10751 H1 31.463 3.358 38.418 ho 1556 TIP3_1556    0.417
10752 H2 32.090 2.243 39.268 ho 1556 TIP3_1556    0.417
10753 OH2 40.347 5.170 37.449 oh 1557 TIP3_1557   -0.834
10754 H1 40.735 4.648 36.718 ho 1557 TIP3_1557    0.417
10755 H2 41.082 5.398 38.002 ho 1557 TIP3_1557    0.417
10756 OH2 43.836 15.273 36.688 oh 1558 TIP3_1558   -0.834
10757 H1 43.582 14.686 35.970 ho 1558 TIP3_1558    0.417
10758 H2 44.725 14.921 36.886 ho 1558 TIP3_1558    0.417
10759 OH2 42.850 13.594 28.720 oh 1559 TIP3_1559   -0.834
10760 H1 42.343 14.365 28.386 ho 1559 TIP3_1559    0.417
10761 H2 42.199 12.884 28.622 ho 1559 TIP3_1559    0.417
10762 OH2 30.303 17.257 28.992 oh 1560 TIP3_1560   -0.834
10763 H1 29.433 17.319 29.365 ho 1560 TIP3_1560    0.417
10764 H2 30.132 16.861 28.130 ho 1560 TIP3_1560    0.417
10765 OH2 34.694 23.174 32.752 oh 1561 TIP3_1561   -0.834
10766 H1 35.564 22.876 32.435 ho 1561 TIP3_1561    0.417
10767 H2 34.472 22.515 33.530 ho 1561 TIP3_1561    0.417
10768 OH2 40.719 17.591 37.632 oh 1562 TIP3_1562   -0.834
10769 H1 40.682 18.536 37.473 ho 1562 TIP3_1562    0.417
10770 H2 40.841 17.130 36.711 ho 1562 TIP3_1562    0.417
10771 OH2 43.812 4.340 28.169 oh 1563 TIP3_1563   -0.834
10772 H1 43.883 4.394 29.097 ho 1563 TIP3_1563    0.417
10773 H2 42.931 3.859 27.967 ho 1563 TIP3_1563    0.417
10774 OH2 47.059 22.711 34.692 oh 1564 TIP3_1564   -0.834
10775 H1 46.808 21.736 34.694 ho 1564 TIP3_1564    0.417
10776 H2 46.198 23.078 34.454 ho 1564 TIP3_1564    0.417
10777 OH2 46.204 16.122 22.397 oh 1565 TIP3_1565   -0.834
10778 H1 45.661 16.883 22.275 ho 1565 TIP3_1565    0.417
10779 H2 47.013 16.418 22.892 ho 1565 TIP3_1565    0.417
10780 OH2 42.254 3.667 39.476 oh 1566 TIP3_1566   -0.834
10781 H1 42.862 4.322 39.579 ho 1566 TIP3_1566    0.417
10782 H2 42.777 2.880 39.296 ho 1566 TIP3_1566    0.417
10783 OH2 48.587 8.492 30.996 oh 1567 TIP3_1567   -0.834
10784 H1 47.950 8.226 30.335 ho 1567 TIP3_1567    0.417
10785 H2 48.460 9.481 31.091 ho 1567 TIP3_1567    0.417
10786 OH2 47.501 13.806 26.016 oh 1568 TIP3_1568   -0.834
10787 H1 46.645 13.424 26.316 ho 1568 TIP3_1568    0.417
10788 H2 47.458 14.666 26.525 ho 1568 TIP3_1568    0.417
10789 OH2 33.946 23.237 26.628 oh 1569 TIP3_1569   -0.834
10790 H1 34.315 22.752 27.383 ho 1569 TIP3_1569    0.417
10791 H2 33.686 24.083 27.050 ho 1569 TIP3_1569    0.417
10792 OH2 43.649 20.347 28.074 oh 1570 TIP3_1570   -0.834
10793 H1 43.173 20.621 28.933 ho 1570 TIP3_1570    0.417
10794 H2 43.276 20.841 27.350 ho 1570 TIP3_1570    0.417
10795 OH2 48.342 11.354 21.790 oh 1571 TIP3_1571   -0.834
10796 H1 48.196 12.290 21.845 ho 1571 TIP3_1571    0.417
10797 H2 47.690 10.965 21.163 ho 1571 TIP3_1571    0.417
10798 OH2 26.812 15.628 29.913 oh 1572 TIP3_1572   -0.834
10799 H1 27.229 16.541 29.814 ho 1572 TIP3_1572    0.417
10800 H2 26.704 15.517 30.856 ho 1572 TIP3_1572    0.417
10801 OH2 40.865 21.802 34.603 oh 1573 TIP3_1573   -0.834
10802 H1 40.665 21.170 35.281 ho 1573 TIP3_1573    0.417
10803 H2 41.272 22.458 35.153 ho 1573 TIP3_1573    0.417
10804 OH2 39.549 22.520 29.420 oh 1574 TIP3_1574   -0.834
10805 H1 39.825 23.270 28.918 ho 1574 TIP3_1574    0.417
10806 H2 40.059 22.529 30.297 ho 1574 TIP3_1574    0.417
10807 OH2 43.805 7.960 37.939 oh 1575 TIP3_1575   -0.834
10808 H1 44.297 7.167 38.201 ho 1575 TIP3_1575    0.417
10809 H2 44.555 8.610 38.139 ho 1575 TIP3_1575    0.417
10810 OH2 32.849 3.166 26.297 oh 1576 TIP3_1576   -0.834
10811 H1 31.983 2.984 26.695 ho 1576 TIP3_1576    0.417
10812 H2 32.645 3.050 25.325 ho 1576 TIP3_1576    0.417
10813 OH2 33.376 7.914 34.156 oh 1577 TIP3_1577   -0.834
10814 H1 34.100 7.283 34.154 ho 1577 TIP3_1577    0.417
10815 H2 33.807 8.795 33.988 ho 1577 TIP3_1577    0.417
10816 OH2 45.237 20.917 24.287 oh 1578 TIP3_1578   -0.834
10817 H1 44.510 21.512 23.980 ho 1578 TIP3_1578    0.417
10818 H2 45.424 21.084 25.211 ho 1578 TIP3_1578    0.417
10819 OH2 35.205 5.663 34.021 oh 1579 TIP3_1579   -0.834
10820 H1 35.229 5.950 34.967 ho 1579 TIP3_1579    0.417
10821 H2 35.944 5.051 33.928 ho 1579 TIP3_1579    0.417
10822 OH2 40.026 23.051 24.232 oh 1580 TIP3_1580   -0.834
10823 H1 39.513 22.264 24.443 ho 1580 TIP3_1580    0.417
10824 H2 39.925 23.579 25.030 ho 1580 TIP3_1580    0.417
10825 OH2 44.628 8.414 24.486 oh 1581 TIP3_1581   -0.834
10826 H1 44.020 7.757 24.030 ho 1581 TIP3_1581    0.417
10827 H2 44.553 8.144 25.445 ho 1581 TIP3_1581    0.417
10828 OH2 45.518 18.583 32.132 oh 1582 TIP3_1582   -0.834
10829 H1 44.816 18.530 31.447 ho 1582 TIP3_1582    0.417
10830 H2 45.417 17.706 32.622 ho 1582 TIP3_1582    0.417
10831 OH2 32.478 18.797 29.603 oh 1583 TIP3_1583   -0.834
10832 H1 31.861 18.153 29.410 ho 1583 TIP3_1583    0.417
10833 H2 32.513 19.419 28.878 ho 1583 TIP3_1583    0.417
10834 OH2 28.882 8.117 26.689 oh 1584 TIP3_1584   -0.834
10835 H1 29.297 8.920 27.051 ho 1584 TIP3_1584    0.417
10836 H2 29.630 7.476 26.678 ho 1584 TIP3_1584    0.417
10837 OH2 46.477 13.729 37.117 oh 1585 TIP3_1585   -0.834
10838 H1 46.458 13.840 36.126 ho 1585 TIP3_1585    0.417
10839 H2 45.942 12.904 37.309 ho 1585 TIP3_1585    0.417
10840 OH2 38.524 6.510 30.170 oh 1586 TIP3_1586   -0.834
10841 H1 39.302 7.013 29.850 ho 1586 TIP3_1586    0.417
10842 H2 37.790 6.810 29.682 ho 1586 TIP3_1586    0.417
10843 OH2 45.306 1.975 31.557 oh 1587 TIP3_1587   -0.834
10844 H1 44.429 2.310 31.677 ho 1587 TIP3_1587    0.417
10845 H2 45.838 2.794 31.439 ho 1587 TIP3_1587    0.417
10846 OH2 27.791 13.628 23.592 oh 1588 TIP3_1588   -0.834
10847 H1 27.761 13.827 22.645 ho 1588 TIP3_1588    0.417
10848 H2 27.020 14.077 23.951 ho 1588 TIP3_1588    0.417
10849 OH2 26.844 16.246 25.820 oh 1589 TIP3_1589   -0.834
10850 H1 25.974 16.527 25.872 ho 1589 TIP3_1589    0.417
10851 H2 26.788 15.390 26.255 ho 1589 TIP3_1589    0.417
10852 OH2 26.387 7.752 27.272 oh 1590 TIP3_1590   -0.834
10853 H1 27.239 7.757 26.946 ho 1590 TIP3_1590    0.417
10854 H2 26.516 7.728 28.219 ho 1590 TIP3_1590    0.417
10855 OH2 47.026 16.324 26.924 oh 1591 TIP3_1591   -0.834
10856 H1 46.689 16.873 27.629 ho 1591 TIP3_1591    0.417
10857 H2 47.646 17.008 26.476 ho 1591 TIP3_1591    0.417
10858 OH2 49.145 18.996 34.599 oh 1592 TIP3_1592   -0.834
10859 H1 48.539 19.676 34.306 ho 1592 TIP3_1592    0.417
10860 H2 50.054 19.359 34.398 ho 1592 TIP3_1592    0.417
10861 OH2 34.707 20.252 25.657 oh 1593 TIP3_1593   -0.834
10862 H1 35.407 19.605 25.510 ho 1593 TIP3_1593    0.417
10863 H2 34.267 20.229 24.762 ho 1593 TIP3_1593    0.417
10864 OH2 28.591 7.885 23.952 oh 1594 TIP3_1594   -0.834
10865 H1 28.673 8.092 24.925 ho 1594 TIP3_1594    0.417
10866 H2 29.435 8.064 23.703 ho 1594 TIP3_1594    0.417
10867 OH2 48.323 4.785 35.223 oh 1595 TIP3_1595   -0.834
10868 H1 49.151 5.268 35.038 ho 1595 TIP3_1595    0.417
10869 H2 48.301 4.193 34.556 ho 1595 TIP3_1595    0.417
10870 OH2 34.858 13.394 30.976 oh 1596 TIP3_1596   -0.834
10871 H1 34.086 13.132 31.412 ho 1596 TIP3_1596    0.417
10872 H2 35.285 14.003 31.503 ho 1596 TIP3_1596    0.417
10873 OH2 46.097 7.860 30.120 oh 1597 TIP3_1597   -0.834
10874 H1 45.853 8.778 30.024 ho 1597 TIP3_1597    0.417
10875 H2 45.276 7.355 30.029 ho 1597 TIP3_1597    0.417
10876 OH2 31.703 1.593 30.267 oh 1598 TIP3_1598   -0.834
10877 H1 32.407 2.207 30.181 ho 1598 TIP3_1598    0.417
10878 H2 31.716 1.068 29.433 ho 1598 TIP3_1598    0.417
10879 OH2 29.951 23.444 23.891 oh 1599 TIP3_1599   -0.834
10880 H1 29.692 22.821 23.273 ho 1599 TIP3_1599    0.417
10881 H2 29.860 22.895 24.723 ho 1599 TIP3_1599    0.417
10882 OH2 44.917 1.551 34.460 oh 1600 TIP3_1600   -0.834
10883 H1 45.120 1.190 33.560 ho 1600 TIP3_1600    0.417
10884 H2 44.806 2.508 34.291 ho 1600 TIP3_1600    0.417
10885 OH2 28.804 12.685 25.947 oh 1601 TIP3_1601   -0.834
10886 H1 28.890 13.401 25.253 ho 1601 TIP3_1601    0.417
10887 H2 27.867 12.673 26.123 ho 1601 TIP3_1601    0.417
10888 OH2 30.885 10.212 32.982 oh 1602 TIP3_1602   -0.834
10889 H1 30.509 10.849 32.311 ho 1602 TIP3_1602    0.417
10890 H2 31.802 10.079 32.731 ho 1602 TIP3_1602    0.417
10891 OH2 26.413 20.059 26.224 oh 1603 TIP3_1603   -0.834
10892 H1 26.984 20.771 26.646 ho 1603 TIP3_1603    0.417
10893 H2 27.018 19.555 25.762 ho 1603 TIP3_1603    0.417
10894 OH2 41.419 6.379 29.847 oh 1604 TIP3_1604   -0.834
10895 H1 41.503 6.761 30.704 ho 1604 TIP3_1604    0.417
10896 H2 41.337 5.424 29.994 ho 1604 TIP3_1604    0.417
10897 OH2 28.659 11.945 39.055 oh 1605 TIP3_1605   -0.834
10898 H1 28.369 11.694 38.168 ho 1605 TIP3_1605    0.417
10899 H2 29.611 11.868 38.988 ho 1605 TIP3_1605    0.417
10900 OH2 38.639 11.451 22.794 oh 1606 TIP3_1606   -0.834
10901 H1 38.593 11.229 21.846 ho 1606 TIP3_1606    0.417
10902 H2 39.595 11.287 22.963 ho 1606 TIP3_1606    0.417
10903 OH2 44.993 5.539 36.953 oh 1607 TIP3_1607   -0.834
10904 H1 45.630 6.251 37.002 ho 1607 TIP3_1607    0.417
10905 H2 45.051 5.203 37.883 ho 1607 TIP3_1607    0.417
10906 OH2 31.151 11.124 36.576 oh 1608 TIP3_1608   -0.834
10907 H1 31.252 11.551 37.452 ho 1608 TIP3_1608    0.417
10908 H2 31.637 11.696 35.931 ho 1608 TIP3_1608    0.417
10909 OH2 28.882 23.633 31.463 oh 1609 TIP3_1609   -0.834
10910 H1 29.731 23.116 31.401 ho 1609 TIP3_1609    0.417
10911 H2 29.079 24.242 32.158 ho 1609 TIP3_1609    0.417
10912 OH2 40.438 16.927 34.934 oh 1610 TIP3_1610   -0.834
10913 H1 40.398 16.389 34.185 ho 1610 TIP3_1610    0.417
10914 H2 41.130 17.616 34.696 ho 1610 TIP3_1610    0.417
10915 OH2 38.017 22.629 32.382 oh 1611 TIP3_1611   -0.834
10916 H1 38.732 22.022 32.092 ho 1611 TIP3_1611    0.417
10917 H2 38.397 23.137 33.088 ho 1611 TIP3_1611    0.417
10918 OH2 40.311 19.855 22.525 oh 1612 TIP3_1612   -0.834
10919 H1 40.152 19.213 21.850 ho 1612 TIP3_1612    0.417
10920 H2 40.756 20.568 22.118 ho 1612 TIP3_1612    0.417
10921 OH2 35.259 24.203 36.996 oh 1613 TIP3_1613   -0.834
10922 H1 35.610 24.789 36.271 ho 1613 TIP3_1613    0.417
10923 H2 36.021 23.593 37.132 ho 1613 TIP3_1613    0.417
10924 OH2 40.001 7.510 38.946 oh 1614 TIP3_1614   -0.834
10925 H1 40.077 8.137 38.185 ho 1614 TIP3_1614    0.417
10926 H2 40.856 7.607 39.382 ho 1614 TIP3_1614    0.417
10927 OH2 26.046 8.967 23.328 oh 1615 TIP3_1615   -0.834
10928 H1 25.450 8.551 23.959 ho 1615 TIP3_1615    0.417
10929 H2 26.852 8.514 23.417 ho 1615 TIP3_1615    0.417
10930 OH2 33.296 9.793 31.227 oh 1616 TIP3_1616   -0.834
10931 H1 32.628 9.702 30.533 ho 1616 TIP3_1616    0.417
10932 H2 33.912 10.487 30.906 ho 1616 TIP3_1616    0.417
10933 OH2 37.758 16.522 36.388 oh 1617 TIP3_1617   -0.834
10934 H1 38.492 16.880 35.814 ho 1617 TIP3_1617    0.417
10935 H2 37.155 17.290 36.295 ho 1617 TIP3_1617    0.417
10936 OH2 36.959 2.405 25.062 oh 1618 TIP3_1618   -0.834
10937 H1 36.535 2.180 25.877 ho 1618 TIP3_1618    0.417
10938 H2 37.479 3.214 25.359 ho 1618 TIP3_1618    0.417
10939 OH2 40.727 1.799 36.891 oh 1619 TIP3_1619   -0.834
10940 H1 41.447 1.161 37.214 ho 1619 TIP3_1619    0.417
10941 H2 40.668 2.359 37.635 ho 1619 TIP3_1619    0.417
10942 OH2 38.663 1.432 31.948 oh 1620 TIP3_1620   -0.834
10943 H1 38.851 1.261 32.901 ho 1620 TIP3_1620    0.417
10944 H2 38.355 2.375 31.952 ho 1620 TIP3_1620    0.417
10945 OH2 30.725 21.737 34.359 oh 1621 TIP3_1621   -0.834
10946 H1 30.929 22.691 34.555 ho 1621 TIP3_1621    0.417
10947 H2 29.801 21.608 34.631 ho 1621 TIP3_1621    0.417
10948 OH2 25.345 21.967 36.611 oh 1622 TIP3_1622   -0.834
10949 H1 25.480 21.155 37.167 ho 1622 TIP3_1622    0.417
10950 H2 25.942 22.627 36.992 ho 1622 TIP3_1622    0.417
10951 OH2 31.510 12.104 22.849 oh 1623 TIP3_1623   -0.834
10952 H1 30.606 11.942 22.879 ho 1623 TIP3_1623    0.417
10953 H2 31.847 11.234 22.582 ho 1623 TIP3_1623    0.417
10954 OH2 27.366 19.352 23.230 oh 1624 TIP3_1624   -0.834
10955 H1 27.665 18.657 23.892 ho 1624 TIP3_1624    0.417
10956 H2 26.780 18.873 22.634 ho 1624 TIP3_1624    0.417
10957 OH2 26.765 14.532 33.178 oh 1625 TIP3_1625   -0.834
10958 H1 25.761 14.599 33.140 ho 1625 TIP3_1625    0.417
10959 H2 26.936 13.964 33.962 ho 1625 TIP3_1625    0.417
10960 OH2 38.912 1.462 27.705 oh 1626 TIP3_1626   -0.834
10961 H1 38.667 2.388 27.959 ho 1626 TIP3_1626    0.417
10962 H2 38.488 0.916 28.420 ho 1626 TIP3_1626    0.417
10963 OH2 44.470 16.713 33.914 oh 1627 TIP3_1627   -0.834
10964 H1 44.114 15.840 33.899 ho 1627 TIP3_1627    0.417
10965 H2 44.812 16.945 34.817 ho 1627 TIP3_1627    0.417
10966 OH2 36.284 17.868 24.796 oh 1628 TIP3_1628   -0.834
10967 H1 36.828 17.427 25.483 ho 1628 TIP3_1628    0.417
10968 H2 36.632 17.565 23.939 ho 1628 TIP3_1628    0.417
10969 OH2 47.736 0.421 31.238 oh 1629 TIP3_1629   -0.834
10970 H1 47.831 -0.278 30.502 ho 1629 TIP3_1629    0.417
10971 H2 46.816 0.685 31.272 ho 1629 TIP3_1629    0.417
10972 OH2 47.471 5.711 21.456 oh 1630 TIP3_1630   -0.834
10973 H1 47.376 6.718 21.358 ho 1630 TIP3_1630    0.417
10974 H2 46.952 5.563 22.308 ho 1630 TIP3_1630    0.417
10975 OH2 35.320 18.797 35.325 oh 1631 TIP3_1631   -0.834
10976 H1 35.286 18.722 36.319 ho 1631 TIP3_1631    0.417
10977 H2 34.720 19.595 35.134 ho 1631 TIP3_1631    0.417
10978 OH2 27.213 12.935 31.063 oh 1632 TIP3_1632   -0.834
10979 H1 27.155 13.521 31.821 ho 1632 TIP3_1632    0.417
10980 H2 27.073 13.558 30.344 ho 1632 TIP3_1632    0.417
10981 OH2 40.188 0.770 25.417 oh 1633 TIP3_1633   -0.834
10982 H1 39.279 0.567 25.109 ho 1633 TIP3_1633    0.417
10983 H2 40.058 1.025 26.339 ho 1633 TIP3_1633    0.417
10984 OH2 38.548 15.677 29.328 oh 1634 TIP3_1634   -0.834
10985 H1 39.066 15.680 28.519 ho 1634 TIP3_1634    0.417
10986 H2 37.766 16.156 29.101 ho 1634 TIP3_1634    0.417
10987 OH2 48.513 7.168 26.976 oh 1635 TIP3_1635   -0.834
10988 H1 47.857 6.774 26.300 ho 1635 TIP3_1635    0.417
10989 H2 49.399 6.777 26.724 ho 1635 TIP3_1635    0.417
10990 OH2 38.704 9.221 26.755 oh 1636 TIP3_1636   -0.834
10991 H1 37.799 8.899 26.825 ho 1636 TIP3_1636    0.417
10992 H2 38.565 10.045 26.418 ho 1636 TIP3_1636    0.417
10993 OH2 41.681 8.631 27.219 oh 1637 TIP3_1637   -0.834
10994 H1 41.626 8.886 26.304 ho 1637 TIP3_1637    0.417
10995 H2 40.882 8.213 27.424 ho 1637 TIP3_1637    0.417
10996 OH2 30.557 16.084 36.385 oh 1638 TIP3_1638   -0.834
10997 H1 29.641 15.939 36.785 ho 1638 TIP3_1638    0.417
10998 H2 30.852 16.949 36.798 ho 1638 TIP3_1638    0.417
10999 OH2 37.282 19.684 39.049 oh 1639 TIP3_1639   -0.834
11000 H1 36.647 19.737 39.766 ho 1639 TIP3_1639    0.417
11001 H2 38.168 19.471 39.430 ho 1639 TIP3_1639    0.417
11002 OH2 35.219 0.985 30.587 oh 1640 TIP3_1640   -0.834
11003 H1 35.691 0.282 30.198 ho 1640 TIP3_1640    0.417
11004 H2 35.349 0.758 31.551 ho 1640 TIP3_1640    0.417
11005 OH2 39.837 20.257 37.127 oh 1641 TIP3_1641   -0.834
11006 H1 39.031 20.382 37.636 ho 1641 TIP3_1641    0.417
11007 H2 39.420 20.111 36.245 ho 1641 TIP3_1641    0.417
11008 OH2 45.244 20.722 37.370 oh 1642 TIP3_1642   -0.834
11009 H1 46.105 20.472 37.720 ho 1642 TIP3_1642    0.417
11010 H2 45.403 21.618 37.130 ho 1642 TIP3_1642    0.417
11011 OH2 49.725 23.075 35.217 oh 1643 TIP3_1643   -0.834
11012 H1 48.918 23.265 34.734 ho 1643 TIP3_1643    0.417
11013 H2 49.557 22.262 35.656 ho 1643 TIP3_1643    0.417
11014 OH2 39.389 14.614 33.243 oh 1644 TIP3_1644   -0.834
11015 H1 40.121 14.201 32.760 ho 1644 TIP3_1644    0.417
11016 H2 39.054 15.229 32.572 ho 1644 TIP3_1644    0.417
11017 OH2 36.380 22.907 25.259 oh 1645 TIP3_1645   -0.834
11018 H1 35.434 22.795 25.436 ho 1645 TIP3_1645    0.417
11019 H2 36.658 22.001 25.253 ho 1645 TIP3_1645    0.417
11020 OH2 36.253 17.473 29.000 oh 1646 TIP3_1646   -0.834
11021 H1 35.505 16.897 28.726 ho 1646 TIP3_1646    0.417
11022 H2 36.190 18.254 28.469 ho 1646 TIP3_1646    0.417
11023 OH2 26.364 9.101 34.796 oh 1647 TIP3_1647   -0.834
11024 H1 25.422 9.237 34.725 ho 1647 TIP3_1647    0.417
11025 H2 26.753 9.697 34.113 ho 1647 TIP3_1647    0.417
11026 OH2 38.378 11.017 35.510 oh 1648 TIP3_1648   -0.834
11027 H1 38.844 11.623 36.021 ho 1648 TIP3_1648    0.417
11028 H2 37.958 11.567 34.825 ho 1648 TIP3_1648    0.417
11029 OH2 37.311 22.192 37.558 oh 1649 TIP3_1649   -0.834
11030 H1 37.286 21.320 37.862 ho 1649 TIP3_1649    0.417
11031 H2 37.752 22.698 38.317 ho 1649 TIP3_1649    0.417
11032 OH2 47.845 24.325 22.864 oh 1650 TIP3_1650   -0.834
11033 H1 47.961 23.528 22.296 ho 1650 TIP3_1650    0.417
11034 H2 47.744 23.884 23.742 ho 1650 TIP3_1650    0.417
11035 OH2 34.345 6.960 31.323 oh 1651 TIP3_1651   -0.834
11036 H1 34.488 6.566 32.253 ho 1651 TIP3_1651    0.417
11037 H2 33.899 7.828 31.460 ho 1651 TIP3_1651    0.417
11038 OH2 34.362 15.956 27.651 oh 1652 TIP3_1652   -0.834
11039 H1 34.994 15.567 27.045 ho 1652 TIP3_1652    0.417
11040 H2 33.951 15.184 28.003 ho 1652 TIP3_1652    0.417
11041 OH2 40.369 11.264 31.031 oh 1653 TIP3_1653   -0.834
11042 H1 40.586 11.956 31.636 ho 1653 TIP3_1653    0.417
11043 H2 40.370 10.505 31.586 ho 1653 TIP3_1653    0.417
11044 OH2 42.814 11.110 36.120 oh 1654 TIP3_1654   -0.834
11045 H1 43.288 10.457 36.649 ho 1654 TIP3_1654    0.417
11046 H2 42.343 11.669 36.772 ho 1654 TIP3_1654    0.417
11047 OH2 36.165 7.860 26.755 oh 1655 TIP3_1655   -0.834
11048 H1 36.383 7.035 26.393 ho 1655 TIP3_1655    0.417
11049 H2 35.906 7.669 27.661 ho 1655 TIP3_1655    0.417
11050 OH2 29.412 3.685 23.681 oh 1656 TIP3_1656   -0.834
11051 H1 30.284 3.809 23.294 ho 1656 TIP3_1656    0.417
11052 H2 29.537 3.328 24.630 ho 1656 TIP3_1656    0.417
11053 OH2 26.079 17.038 35.107 oh 1657 TIP3_1657   -0.834
11054 H1 25.379 17.718 34.841 ho 1657 TIP3_1657    0.417
11055 H2 25.478 16.301 35.357 ho 1657 TIP3_1657    0.417
11056 OH2 48.280 17.375 23.655 oh 1658 TIP3_1658   -0.834
11057 H1 49.285 17.267 23.505 ho 1658 TIP3_1658    0.417
11058 H2 48.223 17.842 24.501 ho 1658 TIP3_1658    0.417
11059 OH2 32.653 24.174 24.550 oh 1659 TIP3_1659   -0.834
11060 H1 32.948 23.503 25.151 ho 1659 TIP3_1659    0.417
11061 H2 31.726 23.886 24.427 ho 1659 TIP3_1659    0.417
11062 OH2 31.165 22.021 30.717 oh 1660 TIP3_1660   -0.834
11063 H1 31.377 21.694 31.553 ho 1660 TIP3_1660    0.417
11064 H2 31.345 21.232 30.212 ho 1660 TIP3_1660    0.417
11065 OH2 42.433 9.841 29.565 oh 1661 TIP3_1661   -0.834
11066 H1 41.751 10.502 29.877 ho 1661 TIP3_1661    0.417
11067 H2 41.972 9.395 28.823 ho 1661 TIP3_1661    0.417
11068 OH2 31.039 19.210 31.909 oh 1662 TIP3_1662   -0.834
11069 H1 31.701 19.150 31.157 ho 1662 TIP3_1662    0.417
11070 H2 31.016 18.280 32.253 ho 1662 TIP3_1662    0.417
11071 OH2 44.029 21.111 32.491 oh 1663 TIP3_1663   -0.834
11072 H1 44.851 20.630 32.264 ho 1663 TIP3_1663    0.417
11073 H2 44.348 21.658 33.196 ho 1663 TIP3_1663    0.417
11074 OH2 40.429 12.194 28.497 oh 1664 TIP3_1664   -0.834
11075 H1 39.827 11.701 28.024 ho 1664 TIP3_1664    0.417
11076 H2 40.256 12.007 29.483 ho 1664 TIP3_1664    0.417
11077 OH2 42.285 6.754 24.333 oh 1665 TIP3_1665   -0.834
11078 H1 41.920 6.245 25.070 ho 1665 TIP3_1665    0.417
11079 H2 41.777 7.564 24.293 ho 1665 TIP3_1665    0.417
11080 OH2 34.427 5.942 23.632 oh 1666 TIP3_1666   -0.834
11081 H1 33.788 5.295 23.229 ho 1666 TIP3_1666    0.417
11082 H2 34.156 5.988 24.564 ho 1666 TIP3_1666    0.417
11083 OH2 40.835 9.345 24.561 oh 1667 TIP3_1667   -0.834
11084 H1 40.970 9.917 23.825 ho 1667 TIP3_1667    0.417
11085 H2 40.172 9.871 25.071 ho 1667 TIP3_1667    0.417
11086 OH2 46.374 23.285 37.557 oh 1668 TIP3_1668   -0.834
11087 H1 46.084 24.250 37.454 ho 1668 TIP3_1668    0.417
11088 H2 47.040 23.124 36.938 ho 1668 TIP3_1668    0.417
11089 OH2 48.392 11.149 30.740 oh 1669 TIP3_1669   -0.834
11090 H1 47.454 11.253 30.454 ho 1669 TIP3_1669    0.417
11091 H2 48.773 11.596 29.976 ho 1669 TIP3_1669    0.417
11092 OH2 48.294 17.462 30.536 oh 1670 TIP3_1670   -0.834
11093 H1 47.988 17.356 31.428 ho 1670 TIP3_1670    0.417
11094 H2 47.550 17.147 29.983 ho 1670 TIP3_1670    0.417
11095 OH2 26.414 6.430 37.722 oh 1671 TIP3_1671   -0.834
11096 H1 27.075 5.965 37.171 ho 1671 TIP3_1671    0.417
11097 H2 26.742 7.354 37.760 ho 1671 TIP3_1671    0.417
11098 OH2 47.691 4.073 31.570 oh 1672 TIP3_1672   -0.834
11099 H1 48.249 3.638 30.958 ho 1672 TIP3_1672    0.417
11100 H2 47.694 3.441 32.339 ho 1672 TIP3_1672    0.417
11101 OH2 29.649 2.814 33.742 oh 1673 TIP3_1673   -0.834
11102 H1 30.269 3.535 33.426 ho 1673 TIP3_1673    0.417
11103 H2 28.772 3.055 33.380 ho 1673 TIP3_1673    0.417
11104 OH2 28.661 0.314 31.089 oh 1674 TIP3_1674   -0.834
11105 H1 29.172 -0.129 30.415 ho 1674 TIP3_1674    0.417
11106 H2 29.048 0.053 31.889 ho 1674 TIP3_1674    0.417
11107 OH2 36.320 18.099 22.036 oh 1675 TIP3_1675   -0.834
11108 H1 36.366 17.823 21.101 ho 1675 TIP3_1675    0.417
11109 H2 35.446 18.391 22.186 ho 1675 TIP3_1675    0.417
11110 OH2 47.992 18.839 25.968 oh 1676 TIP3_1676   -0.834
11111 H1 47.682 19.754 25.618 ho 1676 TIP3_1676    0.417
11112 H2 48.422 19.074 26.797 ho 1676 TIP3_1676    0.417
11113 OH2 41.065 0.442 21.863 oh 1677 TIP3_1677   -0.834
11114 H1 41.635 0.925 22.452 ho 1677 TIP3_1677    0.417
11115 H2 40.175 0.616 22.164 ho 1677 TIP3_1677    0.417
11116 OH2 38.755 0.794 34.939 oh 1678 TIP3_1678   -0.834
11117 H1 37.826 0.669 35.187 ho 1678 TIP3_1678    0.417
11118 H2 39.148 0.751 35.794 ho 1678 TIP3_1678    0.417
11119 OH2 36.820 15.107 26.033 oh 1679 TIP3_1679   -0.834
11120 H1 37.362 15.032 26.787 ho 1679 TIP3_1679    0.417
11121 H2 37.394 14.727 25.302 ho 1679 TIP3_1679    0.417
11122 OH2 48.883 21.700 25.261 oh 1680 TIP3_1680   -0.834
11123 H1 49.537 21.561 25.933 ho 1680 TIP3_1680    0.417
11124 H2 49.223 21.176 24.528 ho 1680 TIP3_1680    0.417
11125 OH2 46.334 23.333 25.474 oh 1681 TIP3_1681   -0.834
11126 H1 47.099 22.648 25.519 ho 1681 TIP3_1681    0.417
11127 H2 46.154 23.474 26.469 ho 1681 TIP3_1681    0.417
11128 OH2 46.374 20.513 28.492 oh 1682 TIP3_1682   -0.834
11129 H1 46.721 21.434 28.445 ho 1682 TIP3_1682    0.417
11130 H2 45.432 20.701 28.290 ho 1682 TIP3_1682    0.417
11131 OH2 49.484 11.412 38.370 oh 1683 TIP3_1683   -0.834
11132 H1 49.485 11.471 37.394 ho 1683 TIP3_1683    0.417
11133 H2 49.158 10.531 38.488 ho 1683 TIP3_1683    0.417
11134 OH2 36.352 5.601 21.013 oh 1684 TIP3_1684   -0.834
11135 H1 37.269 5.816 20.919 ho 1684 TIP3_1684    0.417
11136 H2 36.165 5.897 21.913 ho 1684 TIP3_1684    0.417
11137 OH2 29.283 21.121 22.634 oh 1685 TIP3_1685   -0.834
11138 H1 28.525 20.519 22.647 ho 1685 TIP3_1685    0.417
11139 H2 29.983 20.597 22.265 ho 1685 TIP3_1685    0.417
11140 OH2 48.346 20.486 30.711 oh 1686 TIP3_1686   -0.834
11141 H1 47.655 20.383 30.073 ho 1686 TIP3_1686    0.417
11142 H2 48.741 19.565 30.834 ho 1686 TIP3_1686    0.417
11143 OH2 40.896 23.526 21.561 oh 1687 TIP3_1687   -0.834
11144 H1 40.407 23.184 22.376 ho 1687 TIP3_1687    0.417
11145 H2 40.710 24.490 21.541 ho 1687 TIP3_1687    0.417
11146 OH2 27.405 23.793 24.777 oh 1688 TIP3_1688   -0.834
11147 H1 26.849 24.408 24.270 ho 1688 TIP3_1688    0.417
11148 H2 28.179 23.692 24.229 ho 1688 TIP3_1688    0.417
11149 OH2 26.907 13.378 35.581 oh 1689 TIP3_1689   -0.834
11150 H1 27.307 12.490 35.688 ho 1689 TIP3_1689    0.417
11151 H2 26.748 13.649 36.493 ho 1689 TIP3_1689    0.417
11152 OH2 31.343 16.202 33.133 oh 1690 TIP3_1690   -0.834
11153 H1 30.692 16.681 33.686 ho 1690 TIP3_1690    0.417
11154 H2 32.205 16.193 33.629 ho 1690 TIP3_1690    0.417
11155 OH2 33.888 17.202 33.782 oh 1691 TIP3_1691   -0.834
11156 H1 33.895 17.665 32.873 ho 1691 TIP3_1691    0.417
11157 H2 34.556 17.751 34.218 ho 1691 TIP3_1691    0.417
11158 OH2 38.305 11.968 26.191 oh 1692 TIP3_1692   -0.834
11159 H1 37.349 12.077 26.015 ho 1692 TIP3_1692    0.417
11160 H2 38.733 12.791 25.962 ho 1692 TIP3_1692    0.417
11161 OH2 43.297 8.419 31.764 oh 1693 TIP3_1693   -0.834
11162 H1 43.053 9.034 31.039 ho 1693 TIP3_1693    0.417
11163 H2 44.062 8.788 32.189 ho 1693 TIP3_1693    0.417
11164 OH2 38.513 13.972 24.123 oh 1694 TIP3_1694   -0.834
11165 H1 38.443 13.128 23.603 ho 1694 TIP3_1694    0.417
11166 H2 39.315 14.302 23.743 ho 1694 TIP3_1694    0.417
11167 OH2 29.646 11.705 30.959 oh 1695 TIP3_1695   -0.834
11168 H1 28.806 12.258 30.831 ho 1695 TIP3_1695    0.417
11169 H2 30.096 11.891 30.159 ho 1695 TIP3_1695    0.417
11170 OH2 37.614 2.273 39.116 oh 1696 TIP3_1696   -0.834
11171 H1 38.124 2.950 38.727 ho 1696 TIP3_1696    0.417
11172 H2 37.068 2.765 39.713 ho 1696 TIP3_1696    0.417
11173 OH2 44.162 1.826 39.142 oh 1697 TIP3_1697   -0.834
11174 H1 45.048 1.911 38.839 ho 1697 TIP3_1697    0.417
11175 H2 44.172 1.129 39.774 ho 1697 TIP3_1697    0.417
11176 OH2 30.648 14.346 24.501 oh 1698 TIP3_1698   -0.834
11177 H1 30.914 15.168 24.053 ho 1698 TIP3_1698    0.417
11178 H2 30.960 13.662 23.876 ho 1698 TIP3_1698    0.417
11179 OH2 42.744 23.146 36.875 oh 1699 TIP3_1699   -0.834
11180 H1 42.089 23.850 36.903 ho 1699 TIP3_1699    0.417
11181 H2 43.240 23.175 37.732 ho 1699 TIP3_1699    0.417
11182 OH2 36.994 10.054 32.167 oh 1700 TIP3_1700   -0.834
11183 H1 37.413 10.009 31.268 ho 1700 TIP3_1700    0.417
11184 H2 37.344 10.913 32.501 ho 1700 TIP3_1700    0.417
11185 OH2 39.794 15.182 26.943 oh 1701 TIP3_1701   -0.834
11186 H1 39.877 15.914 26.341 ho 1701 TIP3_1701    0.417
11187 H2 40.643 14.718 26.835 ho 1701 TIP3_1701    0.417
11188 OH2 32.973 12.457 26.258 oh 1702 TIP3_1702   -0.834
11189 H1 32.955 12.961 27.120 ho 1702 TIP3_1702    0.417
11190 H2 32.135 12.732 25.810 ho 1702 TIP3_1702    0.417
11191 OH2 45.902 4.824 23.491 oh 1703 TIP3_1703   -0.834
11192 H1 45.138 4.947 24.024 ho 1703 TIP3_1703    0.417
11193 H2 45.998 3.864 23.489 ho 1703 TIP3_1703    0.417
11194 OH2 44.644 -0.004 25.942 oh 1704 TIP3_1704   -0.834
11195 H1 44.757 0.535 26.785 ho 1704 TIP3_1704    0.417
11196 H2 45.557 -0.259 25.709 ho 1704 TIP3_1704    0.417
11197 OH2 48.390 4.506 38.549 oh 1705 TIP3_1705   -0.834
11198 H1 49.282 4.326 38.132 ho 1705 TIP3_1705    0.417
11199 H2 47.986 5.210 38.029 ho 1705 TIP3_1705    0.417
11200 OH2 37.879 20.190 34.911 oh 1706 TIP3_1706   -0.834
11201 H1 37.047 19.685 34.912 ho 1706 TIP3_1706    0.417
11202 H2 37.694 20.897 34.336 ho 1706 TIP3_1706    0.417
11203 OH2 33.812 22.050 29.372 oh 1707 TIP3_1707   -0.834
11204 H1 33.210 22.658 29.878 ho 1707 TIP3_1707    0.417
11205 H2 34.655 22.094 29.835 ho 1707 TIP3_1707    0.417
11206 OH2 41.775 5.104 21.955 oh 1708 TIP3_1708   -0.834
11207 H1 42.015 5.678 22.734 ho 1708 TIP3_1708    0.417
11208 H2 42.351 5.438 21.300 ho 1708 TIP3_1708    0.417
11209 OH2 42.375 22.256 26.657 oh 1709 TIP3_1709   -0.834
11210 H1 42.247 22.642 25.759 ho 1709 TIP3_1709    0.417
11211 H2 42.844 22.995 27.087 ho 1709 TIP3_1709    0.417
11212 OH2 36.857 21.447 21.963 oh 1710 TIP3_1710   -0.834
11213 H1 36.059 21.177 22.390 ho 1710 TIP3_1710    0.417
11214 H2 36.833 21.231 21.017 ho 1710 TIP3_1710    0.417
11215 OH2 38.340 16.278 39.131 oh 1711 TIP3_1711   -0.834
11216 H1 37.726 16.276 38.397 ho 1711 TIP3_1711    0.417
11217 H2 39.202 16.460 38.673 ho 1711 TIP3_1711    0.417
11218 OH2 31.000 7.305 32.475 oh 1712 TIP3_1712   -0.834
11219 H1 30.423 7.996 32.153 ho 1712 TIP3_1712    0.417
11220 H2 31.806 7.807 32.786 ho 1712 TIP3_1712    0.417
11221 OH2 46.955 7.145 37.539 oh 1713 TIP3_1713   -0.834
11222 H1 47.028 7.757 38.245 ho 1713 TIP3_1713    0.417
11223 H2 47.702 7.400 36.919 ho 1713 TIP3_1713    0.417
11224 OH2 37.889 4.660 34.507 oh 1714 TIP3_1714   -0.834
11225 H1 37.578 4.796 35.395 ho 1714 TIP3_1714    0.417
11226 H2 38.764 4.337 34.632 ho 1714 TIP3_1714    0.417
11227 OH2 26.277 20.001 38.214 oh 1715 TIP3_1715   -0.834
11228 H1 27.048 19.797 37.713 ho 1715 TIP3_1715    0.417
11229 H2 26.729 20.375 39.090 ho 1715 TIP3_1715    0.417
11230 OH2 28.005 4.797 28.447 oh 1716 TIP3_1716   -0.834
11231 H1 27.830 3.988 28.915 ho 1716 TIP3_1716    0.417
11232 H2 28.779 5.190 28.833 ho 1716 TIP3_1716    0.417
11233 OH2 46.571 23.332 28.393 oh 1717 TIP3_1717   -0.834
11234 H1 46.259 23.376 29.325 ho 1717 TIP3_1717    0.417
11235 H2 47.394 23.847 28.397 ho 1717 TIP3_1717    0.417
11236 OH2 32.788 3.845 23.036 oh 1718 TIP3_1718   -0.834
11237 H1 32.294 3.606 22.216 ho 1718 TIP3_1718    0.417
11238 H2 33.556 3.264 23.114 ho 1718 TIP3_1718    0.417
11239 OH2 46.263 11.061 36.765 oh 1719 TIP3_1719   -0.834
11240 H1 46.685 11.021 35.903 ho 1719 TIP3_1719    0.417
11241 H2 45.886 10.164 36.865 ho 1719 TIP3_1719    0.417
11242 OH2 46.379 14.620 31.952 oh 1720 TIP3_1720   -0.834
11243 H1 45.426 14.562 32.024 ho 1720 TIP3_1720    0.417
11244 H2 46.498 14.479 31.034 ho 1720 TIP3_1720    0.417
11245 OH2 33.603 16.023 36.317 oh 1721 TIP3_1721   -0.834
11246 H1 32.641 16.044 36.547 ho 1721 TIP3_1721    0.417
11247 H2 33.705 16.607 35.483 ho 1721 TIP3_1721    0.417
11248 OH2 45.882 6.566 32.920 oh 1722 TIP3_1722   -0.834
11249 H1 46.771 6.259 32.784 ho 1722 TIP3_1722    0.417
11250 H2 46.048 7.516 32.810 ho 1722 TIP3_1722    0.417
11251 OH2 30.341 4.958 37.603 oh 1723 TIP3_1723   -0.834
11252 H1 29.511 4.806 37.153 ho 1723 TIP3_1723    0.417
11253 H2 30.757 5.640 37.035 ho 1723 TIP3_1723    0.417
11254 OH2 47.504 20.843 22.373 oh 1724 TIP3_1724   -0.834
11255 H1 47.122 21.543 21.915 ho 1724 TIP3_1724    0.417
11256 H2 46.882 20.602 23.078 ho 1724 TIP3_1724    0.417
11257 OH2 44.955 18.602 22.532 oh 1725 TIP3_1725   -0.834
11258 H1 44.588 19.172 21.869 ho 1725 TIP3_1725    0.417
11259 H2 45.251 19.269 23.197 ho 1725 TIP3_1725    0.417
11260 OH2 33.457 6.011 26.280 oh 1726 TIP3_1726   -0.834
11261 H1 33.244 6.664 26.934 ho 1726 TIP3_1726    0.417
11262 H2 32.809 5.305 26.487 ho 1726 TIP3_1726    0.417
11263 OH2 45.577 -0.045 21.767 oh 1727 TIP3_1727   -0.834
11264 H1 46.390 0.222 21.241 ho 1727 TIP3_1727    0.417
11265 H2 45.028 0.766 21.645 ho 1727 TIP3_1727    0.417
11266 OH2 30.233 8.186 38.239 oh 1728 TIP3_1728   -0.834
11267 H1 31.106 8.436 38.126 ho 1728 TIP3_1728    0.417
11268 H2 29.783 8.261 37.374 ho 1728 TIP3_1728    0.417
11269 OH2 31.501 19.563 21.638 oh 1729 TIP3_1729   -0.834
11270 H1 31.404 20.394 21.242 ho 1729 TIP3_1729    0.417
11271 H2 31.885 19.031 20.899 ho 1729 TIP3_1729    0.417
11272 OH2 47.955 17.504 36.951 oh 1730 TIP3_1730   -0.834
11273 H1 48.069 18.381 36.492 ho 1730 TIP3_1730    0.417
11274 H2 48.392 16.937 36.299 ho 1730 TIP3_1730    0.417
11275 OH2 45.039 9.865 33.649 oh 1731 TIP3_1731   -0.834
11276 H1 45.969 9.652 33.800 ho 1731 TIP3_1731    0.417
11277 H2 44.590 9.352 34.370 ho 1731 TIP3_1731    0.417
11278 OH2 48.418 2.184 33.483 oh 1732 TIP3_1732   -0.834
11279 H1 48.266 1.649 34.296 ho 1732 TIP3_1732    0.417
11280 H2 48.361 1.508 32.773 ho 1732 TIP3_1732    0.417
11281 OH2 43.477 22.551 22.686 oh 1733 TIP3_1733   -0.834
11282 H1 44.089 23.104 22.038 ho 1733 TIP3_1733    0.417
11283 H2 42.603 22.942 22.507 ho 1733 TIP3_1733    0.417
11284 OH2 36.537 19.763 27.533 oh 1734 TIP3_1734   -0.834
11285 H1 35.949 20.152 26.899 ho 1734 TIP3_1734    0.417
11286 H2 37.347 19.883 27.113 ho 1734 TIP3_1734    0.417
11287 OH2 49.169 6.178 32.512 oh 1735 TIP3_1735   -0.834
11288 H1 49.122 6.962 31.895 ho 1735 TIP3_1735    0.417
11289 H2 48.761 5.528 31.900 ho 1735 TIP3_1735    0.417
11290 OH2 37.141 7.047 38.626 oh 1736 TIP3_1736   -0.834
11291 H1 37.199 7.594 37.757 ho 1736 TIP3_1736    0.417
11292 H2 38.117 7.148 38.899 ho 1736 TIP3_1736    0.417
11293 OH2 46.351 20.098 34.120 oh 1737 TIP3_1737   -0.834
11294 H1 46.141 19.459 33.419 ho 1737 TIP3_1737    0.417
11295 H2 46.259 19.537 34.861 ho 1737 TIP3_1737    0.417
11296 OH2 43.540 15.069 31.251 oh 1738 TIP3_1738   -0.834
11297 H1 43.411 14.516 30.497 ho 1738 TIP3_1738    0.417
11298 H2 43.269 16.010 30.942 ho 1738 TIP3_1738    0.417
11299 OH2 29.289 0.675 26.894 oh 1739 TIP3_1739   -0.834
11300 H1 30.014 0.297 27.329 ho 1739 TIP3_1739    0.417
11301 H2 28.628 0.027 26.933 ho 1739 TIP3_1739    0.417
11302 OH2 45.228 12.963 27.222 oh 1740 TIP3_1740   -0.834
11303 H1 44.371 13.319 27.516 ho 1740 TIP3_1740    0.417
11304 H2 45.139 12.007 27.082 ho 1740 TIP3_1740    0.417
11305 OH2 25.802 0.084 30.942 oh 1741 TIP3_1741   -0.834
11306 H1 25.579 1.065 30.925 ho 1741 TIP3_1741    0.417
11307 H2 26.795 0.163 30.865 ho 1741 TIP3_1741    0.417
11308 OH2 29.062 8.760 31.061 oh 1742 TIP3_1742   -0.834
11309 H1 28.684 9.308 31.782 ho 1742 TIP3_1742    0.417
11310 H2 28.294 8.253 30.802 ho 1742 TIP3_1742    0.417
11311 OH2 42.106 14.762 23.579 oh 1743 TIP3_1743   -0.834
11312 H1 41.292 14.674 23.197 ho 1743 TIP3_1743    0.417
11313 H2 42.471 15.594 23.211 ho 1743 TIP3_1743    0.417
11314 OH2 44.674 13.127 23.918 oh 1744 TIP3_1744   -0.834
11315 H1 44.816 13.852 24.563 ho 1744 TIP3_1744    0.417
11316 H2 43.880 13.508 23.464 ho 1744 TIP3_1744    0.417
11317 OH2 30.048 22.079 26.191 oh 1745 TIP3_1745   -0.834
11318 H1 30.966 22.132 26.511 ho 1745 TIP3_1745    0.417
11319 H2 29.892 21.140 26.142 ho 1745 TIP3_1745    0.417
11320 OH2 33.136 12.527 32.884 oh 1746 TIP3_1746   -0.834
11321 H1 32.853 13.042 33.701 ho 1746 TIP3_1746    0.417
11322 H2 33.653 11.807 33.312 ho 1746 TIP3_1746    0.417
11323 OH2 37.530 12.675 33.202 oh 1747 TIP3_1747   -0.834
11324 H1 38.242 13.363 33.310 ho 1747 TIP3_1747    0.417
11325 H2 36.676 13.280 33.177 ho 1747 TIP3_1747    0.417
11326 OH2 25.565 4.252 27.003 oh 1748 TIP3_1748   -0.834
11327 H1 26.463 4.562 27.156 ho 1748 TIP3_1748    0.417
11328 H2 25.586 3.335 27.207 ho 1748 TIP3_1748    0.417
11329 OH2 34.263 3.274 37.842 oh 1749 TIP3_1749   -0.834
11330 H1 33.946 3.886 38.467 ho 1749 TIP3_1749    0.417
11331 H2 33.797 3.532 37.005 ho 1749 TIP3_1749    0.417
11332 OH2 26.307 0.327 35.552 oh 1750 TIP3_1750   -0.834
11333 H1 27.252 0.463 35.496 ho 1750 TIP3_1750    0.417
11334 H2 26.122 -0.445 34.892 ho 1750 TIP3_1750    0.417
11335 OH2 28.259 4.755 35.897 oh 1751 TIP3_1751   -0.834
11336 H1 28.377 5.314 35.143 ho 1751 TIP3_1751    0.417
11337 H2 27.498 4.224 35.562 ho 1751 TIP3_1751    0.417
11338 OH2 48.889 14.013 23.700 oh 1752 TIP3_1752   -0.834
11339 H1 48.303 13.845 24.445 ho 1752 TIP3_1752    0.417
11340 H2 49.728 14.334 24.108 ho 1752 TIP3_1752    0.417
11341 OH2 45.584 4.083 34.677 oh 1753 TIP3_1753   -0.834
11342 H1 45.206 4.670 35.424 ho 1753 TIP3_1753    0.417
11343 H2 46.495 4.378 34.515 ho 1753 TIP3_1753    0.417
11344 OH2 36.664 24.522 29.745 oh 1754 TIP3_1754   -0.834
11345 H1 36.676 23.614 29.990 ho 1754 TIP3_1754    0.417
11346 H2 37.403 24.864 30.177 ho 1754 TIP3_1754    0.417
11347 OH2 37.532 10.205 29.345 oh 1755 TIP3_1755   -0.834
11348 H1 38.319 10.020 28.833 ho 1755 TIP3_1755    0.417
11349 H2 37.564 11.141 29.531 ho 1755 TIP3_1755    0.417
11350 OH2 37.178 9.613 24.183 oh 1756 TIP3_1756   -0.834
11351 H1 36.256 9.819 24.465 ho 1756 TIP3_1756    0.417
11352 H2 37.419 10.425 23.723 ho 1756 TIP3_1756    0.417
11353 OH2 28.018 0.784 23.691 oh 1757 TIP3_1757   -0.834
11354 H1 27.090 1.122 23.751 ho 1757 TIP3_1757    0.417
11355 H2 28.480 1.539 23.908 ho 1757 TIP3_1757    0.417
11356 OH2 37.397 14.570 21.136 oh 1758 TIP3_1758   -0.834
11357 H1 36.863 15.400 20.930 ho 1758 TIP3_1758    0.417
11358 H2 36.708 13.934 21.152 ho 1758 TIP3_1758    0.417
11359 OH2 47.635 46.010 28.322 oh 1759 TIP3_1759   -0.834
11360 H1 47.191 46.343 27.494 ho 1759 TIP3_1759    0.417
11361 H2 46.968 45.900 28.973 ho 1759 TIP3_1759    0.417
11362 OH2 40.761 42.988 25.660 oh 1760 TIP3_1760   -0.834
11363 H1 40.682 43.747 25.106 ho 1760 TIP3_1760    0.417
11364 H2 40.585 43.367 26.476 ho 1760 TIP3_1760    0.417
11365 OH2 28.686 33.353 28.821 oh 1761 TIP3_1761   -0.834
11366 H1 29.494 32.930 28.503 ho 1761 TIP3_1761    0.417
11367 H2 28.041 32.727 28.616 ho 1761 TIP3_1761    0.417
11368 OH2 25.747 29.469 35.999 oh 1762 TIP3_1762   -0.834
11369 H1 25.426 28.568 35.758 ho 1762 TIP3_1762    0.417
11370 H2 26.505 29.585 35.410 ho 1762 TIP3_1762    0.417
11371 OH2 41.508 34.578 33.101 oh 1763 TIP3_1763   -0.834
11372 H1 41.244 34.038 32.354 ho 1763 TIP3_1763    0.417
11373 H2 42.304 35.021 32.936 ho 1763 TIP3_1763    0.417
11374 OH2 42.708 45.770 38.288 oh 1764 TIP3_1764   -0.834
11375 H1 41.704 45.781 38.200 ho 1764 TIP3_1764    0.417
11376 H2 42.894 44.948 38.743 ho 1764 TIP3_1764    0.417
11377 OH2 34.844 50.169 22.952 oh 1765 TIP3_1765   -0.834
11378 H1 34.135 49.879 23.530 ho 1765 TIP3_1765    0.417
11379 H2 34.959 51.140 23.063 ho 1765 TIP3_1765    0.417
11380 OH2 42.937 29.657 36.622 oh 1766 TIP3_1766   -0.834
11381 H1 42.918 28.922 37.299 ho 1766 TIP3_1766    0.417
11382 H2 42.704 29.173 35.835 ho 1766 TIP3_1766    0.417
11383 OH2 35.209 51.935 27.392 oh 1767 TIP3_1767   -0.834
11384 H1 34.397 52.288 26.940 ho 1767 TIP3_1767    0.417
11385 H2 35.523 52.672 28.044 ho 1767 TIP3_1767    0.417
11386 OH2 46.052 39.490 29.712 oh 1768 TIP3_1768   -0.834
11387 H1 45.664 39.025 30.428 ho 1768 TIP3_1768    0.417
11388 H2 46.791 40.006 30.167 ho 1768 TIP3_1768    0.417
11389 OH2 36.089 35.807 25.723 oh 1769 TIP3_1769   -0.834
11390 H1 36.763 36.018 25.043 ho 1769 TIP3_1769    0.417
11391 H2 36.657 35.391 26.399 ho 1769 TIP3_1769    0.417
11392 OH2 47.523 27.158 26.918 oh 1770 TIP3_1770   -0.834
11393 H1 47.432 27.072 25.966 ho 1770 TIP3_1770    0.417
11394 H2 47.118 26.321 27.281 ho 1770 TIP3_1770    0.417
11395 OH2 49.212 26.714 37.552 oh 1771 TIP3_1771   -0.834
11396 H1 48.582 26.361 38.218 ho 1771 TIP3_1771    0.417
11397 H2 49.341 25.999 36.944 ho 1771 TIP3_1771    0.417
11398 OH2 40.529 30.982 33.938 oh 1772 TIP3_1772   -0.834
11399 H1 41.398 30.632 34.231 ho 1772 TIP3_1772    0.417
11400 H2 40.223 30.333 33.286 ho 1772 TIP3_1772    0.417
11401 OH2 30.279 30.755 36.877 oh 1773 TIP3_1773   -0.834
11402 H1 29.504 30.333 36.386 ho 1773 TIP3_1773    0.417
11403 H2 30.564 29.986 37.438 ho 1773 TIP3_1773    0.417
11404 OH2 36.780 38.509 26.403 oh 1774 TIP3_1774   -0.834
11405 H1 37.311 38.422 27.213 ho 1774 TIP3_1774    0.417
11406 H2 37.379 38.816 25.719 ho 1774 TIP3_1774    0.417
11407 OH2 30.399 36.971 23.500 oh 1775 TIP3_1775   -0.834
11408 H1 30.805 37.322 22.700 ho 1775 TIP3_1775    0.417
11409 H2 30.780 37.469 24.256 ho 1775 TIP3_1775    0.417
11410 OH2 31.382 47.271 27.739 oh 1776 TIP3_1776   -0.834
11411 H1 30.550 47.035 27.267 ho 1776 TIP3_1776    0.417
11412 H2 31.859 46.472 27.612 ho 1776 TIP3_1776    0.417
11413 OH2 33.932 52.387 33.428 oh 1777 TIP3_1777   -0.834
11414 H1 33.209 52.019 34.031 ho 1777 TIP3_1777    0.417
11415 H2 34.762 51.895 33.633 ho 1777 TIP3_1777    0.417
11416 OH2 35.701 49.822 32.959 oh 1778 TIP3_1778   -0.834
11417 H1 36.625 49.508 33.035 ho 1778 TIP3_1778    0.417
11418 H2 35.377 49.718 33.896 ho 1778 TIP3_1778    0.417
11419 OH2 46.892 34.490 28.373 oh 1779 TIP3_1779   -0.834
11420 H1 47.662 33.965 28.427 ho 1779 TIP3_1779    0.417
11421 H2 46.279 33.910 27.977 ho 1779 TIP3_1779    0.417
11422 OH2 30.488 39.255 38.632 oh 1780 TIP3_1780   -0.834
11423 H1 31.279 39.126 39.129 ho 1780 TIP3_1780    0.417
11424 H2 29.864 38.991 39.298 ho 1780 TIP3_1780    0.417
11425 OH2 37.254 44.676 27.649 oh 1781 TIP3_1781   -0.834
11426 H1 37.678 45.538 27.778 ho 1781 TIP3_1781    0.417
11427 H2 37.115 44.535 26.670 ho 1781 TIP3_1781    0.417
11428 OH2 31.246 46.216 38.983 oh 1782 TIP3_1782   -0.834
11429 H1 32.127 46.533 39.214 ho 1782 TIP3_1782    0.417
11430 H2 30.802 47.075 38.875 ho 1782 TIP3_1782    0.417
11431 OH2 36.062 54.274 29.606 oh 1783 TIP3_1783   -0.834
11432 H1 35.233 54.104 30.092 ho 1783 TIP3_1783    0.417
11433 H2 36.736 54.011 30.259 ho 1783 TIP3_1783    0.417
11434 OH2 48.181 54.710 25.247 oh 1784 TIP3_1784   -0.834
11435 H1 48.750 55.343 24.731 ho 1784 TIP3_1784    0.417
11436 H2 47.441 54.528 24.712 ho 1784 TIP3_1784    0.417
11437 OH2 45.969 26.125 35.244 oh 1785 TIP3_1785   -0.834
11438 H1 46.514 26.840 35.661 ho 1785 TIP3_1785    0.417
11439 H2 45.448 26.633 34.598 ho 1785 TIP3_1785    0.417
11440 OH2 25.549 41.393 35.785 oh 1786 TIP3_1786   -0.834
11441 H1 26.292 41.322 36.436 ho 1786 TIP3_1786    0.417
11442 H2 25.665 42.283 35.392 ho 1786 TIP3_1786    0.417
11443 OH2 32.834 39.408 32.947 oh 1787 TIP3_1787   -0.834
11444 H1 32.105 39.717 32.412 ho 1787 TIP3_1787    0.417
11445 H2 33.194 38.714 32.345 ho 1787 TIP3_1787    0.417
11446 OH2 27.763 51.896 37.724 oh 1788 TIP3_1788   -0.834
11447 H1 28.401 51.364 37.164 ho 1788 TIP3_1788    0.417
11448 H2 27.751 52.725 37.279 ho 1788 TIP3_1788    0.417
11449 OH2 43.295 47.630 24.242 oh 1789 TIP3_1789   -0.834
11450 H1 43.602 46.754 23.968 ho 1789 TIP3_1789    0.417
11451 H2 43.981 47.927 24.860 ho 1789 TIP3_1789    0.417
11452 OH2 31.390 54.666 32.590 oh 1790 TIP3_1790   -0.834
11453 H1 31.789 54.750 31.711 ho 1790 TIP3_1790    0.417
11454 H2 30.913 55.472 32.661 ho 1790 TIP3_1790    0.417
11455 OH2 42.374 33.241 22.045 oh 1791 TIP3_1791   -0.834
11456 H1 42.392 34.049 22.650 ho 1791 TIP3_1791    0.417
11457 H2 41.842 32.532 22.453 ho 1791 TIP3_1791    0.417
11458 OH2 47.572 31.242 28.898 oh 1792 TIP3_1792   -0.834
11459 H1 46.705 30.845 29.250 ho 1792 TIP3_1792    0.417
11460 H2 47.951 30.659 28.278 ho 1792 TIP3_1792    0.417
11461 OH2 30.555 56.449 28.044 oh 1793 TIP3_1793   -0.834
11462 H1 30.958 57.299 28.136 ho 1793 TIP3_1793    0.417
11463 H2 31.036 55.896 28.635 ho 1793 TIP3_1793    0.417
11464 OH2 28.080 25.949 37.208 oh 1794 TIP3_1794   -0.834
11465 H1 28.690 25.500 36.591 ho 1794 TIP3_1794    0.417
11466 H2 27.196 25.556 37.061 ho 1794 TIP3_1794    0.417
11467 OH2 31.255 34.802 25.783 oh 1795 TIP3_1795   -0.834
11468 H1 31.954 34.121 26.091 ho 1795 TIP3_1795    0.417
11469 H2 30.459 34.264 25.615 ho 1795 TIP3_1795    0.417
11470 OH2 27.745 27.503 23.892 oh 1796 TIP3_1796   -0.834
11471 H1 27.951 26.649 24.280 ho 1796 TIP3_1796    0.417
11472 H2 27.120 27.358 23.173 ho 1796 TIP3_1796    0.417
11473 OH2 38.870 32.474 37.606 oh 1797 TIP3_1797   -0.834
11474 H1 38.209 33.073 38.052 ho 1797 TIP3_1797    0.417
11475 H2 39.457 33.029 37.078 ho 1797 TIP3_1797    0.417
11476 OH2 35.963 26.737 37.210 oh 1798 TIP3_1798   -0.834
11477 H1 35.319 27.240 36.754 ho 1798 TIP3_1798    0.417
11478 H2 36.709 27.167 36.630 ho 1798 TIP3_1798    0.417
11479 OH2 27.369 44.620 36.257 oh 1799 TIP3_1799   -0.834
11480 H1 27.051 44.425 37.120 ho 1799 TIP3_1799    0.417
11481 H2 28.347 44.717 36.342 ho 1799 TIP3_1799    0.417
11482 OH2 48.194 45.211 35.833 oh 1800 TIP3_1800   -0.834
11483 H1 48.287 44.862 36.759 ho 1800 TIP3_1800    0.417
11484 H2 48.903 45.869 35.692 ho 1800 TIP3_1800    0.417
11485 OH2 29.716 53.389 26.378 oh 1801 TIP3_1801   -0.834
11486 H1 28.999 53.738 26.910 ho 1801 TIP3_1801    0.417
11487 H2 29.567 52.411 26.428 ho 1801 TIP3_1801    0.417
11488 OH2 29.884 29.081 39.132 oh 1802 TIP3_1802   -0.834
11489 H1 29.970 29.746 39.793 ho 1802 TIP3_1802    0.417
11490 H2 28.932 28.975 39.013 ho 1802 TIP3_1802    0.417
11491 OH2 41.114 45.023 34.268 oh 1803 TIP3_1803   -0.834
11492 H1 41.232 45.963 34.029 ho 1803 TIP3_1803    0.417
11493 H2 40.257 44.915 34.719 ho 1803 TIP3_1803    0.417
11494 OH2 33.559 28.515 36.954 oh 1804 TIP3_1804   -0.834
11495 H1 33.435 29.298 37.575 ho 1804 TIP3_1804    0.417
11496 H2 32.955 27.899 37.371 ho 1804 TIP3_1804    0.417
11497 OH2 31.968 36.629 27.773 oh 1805 TIP3_1805   -0.834
11498 H1 31.575 35.896 27.226 ho 1805 TIP3_1805    0.417
11499 H2 32.083 37.290 27.010 ho 1805 TIP3_1805    0.417
11500 OH2 48.065 29.303 39.046 oh 1806 TIP3_1806   -0.834
11501 H1 48.694 30.088 38.982 ho 1806 TIP3_1806    0.417
11502 H2 48.274 28.881 38.204 ho 1806 TIP3_1806    0.417
11503 OH2 28.403 29.687 35.234 oh 1807 TIP3_1807   -0.834
11504 H1 28.109 30.272 34.517 ho 1807 TIP3_1807    0.417
11505 H2 28.817 28.973 34.746 ho 1807 TIP3_1807    0.417
11506 OH2 32.402 53.660 35.781 oh 1808 TIP3_1808   -0.834
11507 H1 31.609 54.153 35.953 ho 1808 TIP3_1808    0.417
11508 H2 32.637 53.912 34.906 ho 1808 TIP3_1808    0.417
11509 OH2 44.832 54.792 30.940 oh 1809 TIP3_1809   -0.834
11510 H1 45.273 55.362 31.613 ho 1809 TIP3_1809    0.417
11511 H2 44.367 54.183 31.469 ho 1809 TIP3_1809    0.417
11512 OH2 46.390 45.831 25.769 oh 1810 TIP3_1810   -0.834
11513 H1 47.048 46.006 25.075 ho 1810 TIP3_1810    0.417
11514 H2 46.376 44.859 25.851 ho 1810 TIP3_1810    0.417
11515 OH2 48.124 46.407 23.838 oh 1811 TIP3_1811   -0.834
11516 H1 48.287 46.095 22.925 ho 1811 TIP3_1811    0.417
11517 H2 49.003 46.651 24.074 ho 1811 TIP3_1811    0.417
11518 OH2 48.294 41.714 33.772 oh 1812 TIP3_1812   -0.834
11519 H1 48.759 42.475 34.090 ho 1812 TIP3_1812    0.417
11520 H2 49.011 41.330 33.371 ho 1812 TIP3_1812    0.417
11521 OH2 46.975 55.136 28.786 oh 1813 TIP3_1813   -0.834
11522 H1 46.739 54.870 29.662 ho 1813 TIP3_1813    0.417
11523 H2 46.767 56.134 28.697 ho 1813 TIP3_1813    0.417
11524 OH2 30.203 48.386 23.676 oh 1814 TIP3_1814   -0.834
11525 H1 30.423 48.076 22.754 ho 1814 TIP3_1814    0.417
11526 H2 29.580 49.076 23.463 ho 1814 TIP3_1814    0.417
11527 OH2 45.692 43.742 37.552 oh 1815 TIP3_1815   -0.834
11528 H1 45.174 43.581 38.367 ho 1815 TIP3_1815    0.417
11529 H2 45.895 42.820 37.274 ho 1815 TIP3_1815    0.417
11530 OH2 41.328 26.151 31.205 oh 1816 TIP3_1816   -0.834
11531 H1 42.092 25.539 31.297 ho 1816 TIP3_1816    0.417
11532 H2 40.596 25.635 31.569 ho 1816 TIP3_1816    0.417
11533 OH2 41.470 53.089 27.601 oh 1817 TIP3_1817   -0.834
11534 H1 41.854 52.230 27.919 ho 1817 TIP3_1817    0.417
11535 H2 40.533 52.856 27.508 ho 1817 TIP3_1817    0.417
11536 OH2 42.347 31.894 38.130 oh 1818 TIP3_1818   -0.834
11537 H1 42.035 32.281 37.351 ho 1818 TIP3_1818    0.417
11538 H2 42.688 31.047 37.806 ho 1818 TIP3_1818    0.417
11539 OH2 35.550 34.544 36.734 oh 1819 TIP3_1819   -0.834
11540 H1 35.055 35.343 36.815 ho 1819 TIP3_1819    0.417
11541 H2 36.460 34.846 36.757 ho 1819 TIP3_1819    0.417
11542 OH2 27.309 55.278 22.894 oh 1820 TIP3_1820   -0.834
11543 H1 27.733 56.105 23.284 ho 1820 TIP3_1820    0.417
11544 H2 27.996 54.624 23.054 ho 1820 TIP3_1820    0.417
11545 OH2 25.688 27.781 32.534 oh 1821 TIP3_1821   -0.834
11546 H1 26.488 28.190 32.122 ho 1821 TIP3_1821    0.417
11547 H2 25.053 28.429 32.350 ho 1821 TIP3_1821    0.417
11548 OH2 40.581 53.901 34.361 oh 1822 TIP3_1822   -0.834
11549 H1 40.875 54.699 33.965 ho 1822 TIP3_1822    0.417
11550 H2 41.377 53.333 34.327 ho 1822 TIP3_1822    0.417
11551 OH2 41.319 49.159 31.495 oh 1823 TIP3_1823   -0.834
11552 H1 41.233 48.434 32.195 ho 1823 TIP3_1823    0.417
11553 H2 41.314 49.950 32.081 ho 1823 TIP3_1823    0.417
11554 OH2 45.488 38.173 32.063 oh 1824 TIP3_1824   -0.834
11555 H1 44.634 37.697 32.351 ho 1824 TIP3_1824    0.417
11556 H2 45.688 38.734 32.869 ho 1824 TIP3_1824    0.417
11557 OH2 45.039 36.688 23.211 oh 1825 TIP3_1825   -0.834
11558 H1 45.902 36.553 23.632 ho 1825 TIP3_1825    0.417
11559 H2 44.749 37.552 23.618 ho 1825 TIP3_1825    0.417
11560 OH2 27.520 55.670 31.677 oh 1826 TIP3_1826   -0.834
11561 H1 27.672 54.751 31.857 ho 1826 TIP3_1826    0.417
11562 H2 27.416 56.150 32.564 ho 1826 TIP3_1826    0.417
11563 OH2 40.628 48.277 23.792 oh 1827 TIP3_1827   -0.834
11564 H1 41.574 48.066 23.982 ho 1827 TIP3_1827    0.417
11565 H2 40.598 49.225 23.908 ho 1827 TIP3_1827    0.417
11566 OH2 29.098 52.516 29.861 oh 1828 TIP3_1828   -0.834
11567 H1 28.869 51.827 30.484 ho 1828 TIP3_1828    0.417
11568 H2 30.084 52.574 30.012 ho 1828 TIP3_1828    0.417
11569 OH2 48.350 50.426 28.068 oh 1829 TIP3_1829   -0.834
11570 H1 49.136 50.667 27.495 ho 1829 TIP3_1829    0.417
11571 H2 47.685 51.158 27.769 ho 1829 TIP3_1829    0.417
11572 OH2 41.927 29.579 24.541 oh 1830 TIP3_1830   -0.834
11573 H1 41.872 29.176 25.439 ho 1830 TIP3_1830    0.417
11574 H2 41.722 28.792 23.954 ho 1830 TIP3_1830    0.417
11575 OH2 33.569 50.684 37.631 oh 1831 TIP3_1831   -0.834
11576 H1 34.123 50.542 38.435 ho 1831 TIP3_1831    0.417
11577 H2 33.805 51.595 37.347 ho 1831 TIP3_1831    0.417
11578 OH2 40.732 53.840 30.373 oh 1832 TIP3_1832   -0.834
11579 H1 39.792 54.023 30.232 ho 1832 TIP3_1832    0.417
11580 H2 40.905 53.211 29.663 ho 1832 TIP3_1832    0.417
11581 OH2 39.354 26.352 39.424 oh 1833 TIP3_1833   -0.834
11582 H1 39.694 25.623 39.984 ho 1833 TIP3_1833    0.417
11583 H2 39.573 27.195 39.845 ho 1833 TIP3_1833    0.417
11584 OH2 35.407 31.649 34.308 oh 1834 TIP3_1834   -0.834
11585 H1 34.810 32.215 34.806 ho 1834 TIP3_1834    0.417
11586 H2 36.077 31.417 34.966 ho 1834 TIP3_1834    0.417
11587 OH2 27.083 53.332 32.745 oh 1835 TIP3_1835   -0.834
11588 H1 26.558 53.514 33.535 ho 1835 TIP3_1835    0.417
11589 H2 26.496 52.737 32.230 ho 1835 TIP3_1835    0.417
11590 OH2 27.174 43.468 27.631 oh 1836 TIP3_1836   -0.834
11591 H1 27.632 42.628 27.622 ho 1836 TIP3_1836    0.417
11592 H2 27.931 44.120 27.700 ho 1836 TIP3_1836    0.417
11593 OH2 25.995 53.021 35.435 oh 1837 TIP3_1837   -0.834
11594 H1 25.013 52.981 35.463 ho 1837 TIP3_1837    0.417
11595 H2 26.298 52.119 35.683 ho 1837 TIP3_1837    0.417
11596 OH2 44.254 46.282 28.078 oh 1838 TIP3_1838   -0.834
11597 H1 44.919 45.761 28.560 ho 1838 TIP3_1838    0.417
11598 H2 43.681 45.629 27.744 ho 1838 TIP3_1838    0.417
11599 OH2 37.493 34.451 27.635 oh 1839 TIP3_1839   -0.834
11600 H1 37.908 34.840 28.406 ho 1839 TIP3_1839    0.417
11601 H2 37.982 33.641 27.459 ho 1839 TIP3_1839    0.417
11602 OH2 27.915 39.197 28.813 oh 1840 TIP3_1840   -0.834
11603 H1 27.155 39.414 29.336 ho 1840 TIP3_1840    0.417
11604 H2 27.719 38.333 28.431 ho 1840 TIP3_1840    0.417
11605 OH2 37.076 29.645 38.986 oh 1841 TIP3_1841   -0.834
11606 H1 37.000 30.522 38.567 ho 1841 TIP3_1841    0.417
11607 H2 36.827 29.835 39.863 ho 1841 TIP3_1841    0.417
11608 OH2 45.843 40.003 34.011 oh 1842 TIP3_1842   -0.834
11609 H1 46.616 40.655 33.944 ho 1842 TIP3_1842    0.417
11610 H2 45.048 40.519 33.975 ho 1842 TIP3_1842    0.417
11611 OH2 44.937 43.357 21.692 oh 1843 TIP3_1843   -0.834
11612 H1 45.096 42.991 20.779 ho 1843 TIP3_1843    0.417
11613 H2 43.967 43.293 21.700 ho 1843 TIP3_1843    0.417
11614 OH2 29.822 43.890 21.898 oh 1844 TIP3_1844   -0.834
11615 H1 29.798 42.920 21.713 ho 1844 TIP3_1844    0.417
11616 H2 30.059 44.298 21.059 ho 1844 TIP3_1844    0.417
11617 OH2 30.203 40.859 24.265 oh 1845 TIP3_1845   -0.834
11618 H1 30.436 41.397 23.478 ho 1845 TIP3_1845    0.417
11619 H2 29.309 40.528 24.128 ho 1845 TIP3_1845    0.417
11620 OH2 38.102 54.392 31.733 oh 1846 TIP3_1846   -0.834
11621 H1 38.204 55.236 31.370 ho 1846 TIP3_1846    0.417
11622 H2 38.273 54.565 32.681 ho 1846 TIP3_1846    0.417
11623 OH2 39.528 56.368 20.958 oh 1847 TIP3_1847   -0.834
11624 H1 40.313 55.944 21.231 ho 1847 TIP3_1847    0.417
11625 H2 39.078 56.480 21.778 ho 1847 TIP3_1847    0.417
11626 OH2 31.041 31.944 23.118 oh 1848 TIP3_1848   -0.834
11627 H1 31.625 31.605 23.859 ho 1848 TIP3_1848    0.417
11628 H2 30.152 31.919 23.507 ho 1848 TIP3_1848    0.417
11629 OH2 35.929 39.750 31.137 oh 1849 TIP3_1849   -0.834
11630 H1 35.050 39.541 30.828 ho 1849 TIP3_1849    0.417
11631 H2 36.401 38.879 31.136 ho 1849 TIP3_1849    0.417
11632 OH2 43.819 53.973 25.087 oh 1850 TIP3_1850   -0.834
11633 H1 43.100 53.428 24.802 ho 1850 TIP3_1850    0.417
11634 H2 44.007 53.885 26.030 ho 1850 TIP3_1850    0.417
11635 OH2 28.248 47.876 29.121 oh 1851 TIP3_1851   -0.834
11636 H1 27.662 47.334 29.668 ho 1851 TIP3_1851    0.417
11637 H2 29.106 47.410 29.200 ho 1851 TIP3_1851    0.417
11638 OH2 33.883 46.581 31.180 oh 1852 TIP3_1852   -0.834
11639 H1 33.705 47.232 31.865 ho 1852 TIP3_1852    0.417
11640 H2 34.357 47.008 30.497 ho 1852 TIP3_1852    0.417
11641 OH2 35.200 45.090 22.689 oh 1853 TIP3_1853   -0.834
11642 H1 35.399 46.025 22.956 ho 1853 TIP3_1853    0.417
11643 H2 34.312 45.149 22.516 ho 1853 TIP3_1853    0.417
11644 OH2 38.134 29.535 31.978 oh 1854 TIP3_1854   -0.834
11645 H1 37.434 28.932 32.357 ho 1854 TIP3_1854    0.417
11646 H2 38.959 29.162 32.384 ho 1854 TIP3_1854    0.417
11647 OH2 35.309 46.500 36.900 oh 1855 TIP3_1855   -0.834
11648 H1 36.014 45.928 36.604 ho 1855 TIP3_1855    0.417
11649 H2 34.595 45.961 36.603 ho 1855 TIP3_1855    0.417
11650 OH2 49.148 29.469 26.934 oh 1856 TIP3_1856   -0.834
11651 H1 48.319 28.941 26.859 ho 1856 TIP3_1856    0.417
11652 H2 49.739 28.855 27.400 ho 1856 TIP3_1856    0.417
11653 OH2 25.899 52.856 23.995 oh 1857 TIP3_1857   -0.834
11654 H1 26.192 53.631 23.510 ho 1857 TIP3_1857    0.417
11655 H2 25.149 53.180 24.510 ho 1857 TIP3_1857    0.417
11656 OH2 26.641 43.264 33.556 oh 1858 TIP3_1858   -0.834
11657 H1 25.755 43.490 33.427 ho 1858 TIP3_1858    0.417
11658 H2 26.981 44.003 34.085 ho 1858 TIP3_1858    0.417
11659 OH2 36.644 44.479 24.990 oh 1859 TIP3_1859   -0.834
11660 H1 35.931 44.667 24.293 ho 1859 TIP3_1859    0.417
11661 H2 37.453 44.513 24.442 ho 1859 TIP3_1859    0.417
11662 OH2 26.615 42.355 39.774 oh 1860 TIP3_1860   -0.834
11663 H1 26.225 41.480 39.840 ho 1860 TIP3_1860    0.417
11664 H2 25.859 42.984 39.470 ho 1860 TIP3_1860    0.417
11665 OH2 42.422 28.400 29.622 oh 1861 TIP3_1861   -0.834
11666 H1 43.195 28.434 29.017 ho 1861 TIP3_1861    0.417
11667 H2 42.397 27.425 29.827 ho 1861 TIP3_1861    0.417
11668 OH2 49.165 31.819 31.195 oh 1862 TIP3_1862   -0.834
11669 H1 48.867 31.610 30.293 ho 1862 TIP3_1862    0.417
11670 H2 48.362 32.177 31.670 ho 1862 TIP3_1862    0.417
11671 OH2 34.078 36.967 38.154 oh 1863 TIP3_1863   -0.834
11672 H1 33.228 36.561 38.412 ho 1863 TIP3_1863    0.417
11673 H2 34.512 37.194 38.979 ho 1863 TIP3_1863    0.417
11674 OH2 38.380 54.030 28.230 oh 1864 TIP3_1864   -0.834
11675 H1 37.670 54.133 28.906 ho 1864 TIP3_1864    0.417
11676 H2 38.194 54.795 27.602 ho 1864 TIP3_1864    0.417
11677 OH2 47.023 52.254 38.632 oh 1865 TIP3_1865   -0.834
11678 H1 47.008 52.284 37.697 ho 1865 TIP3_1865    0.417
11679 H2 47.707 52.959 38.850 ho 1865 TIP3_1865    0.417
11680 OH2 42.812 30.771 31.295 oh 1866 TIP3_1866   -0.834
11681 H1 42.220 31.316 30.800 ho 1866 TIP3_1866    0.417
11682 H2 42.551 29.869 31.088 ho 1866 TIP3_1866    0.417
11683 OH2 31.385 50.655 32.903 oh 1867 TIP3_1867   -0.834
11684 H1 31.585 50.839 31.959 ho 1867 TIP3_1867    0.417
11685 H2 30.725 51.337 33.149 ho 1867 TIP3_1867    0.417
11686 OH2 30.141 26.611 25.919 oh 1868 TIP3_1868   -0.834
11687 H1 29.697 26.110 26.654 ho 1868 TIP3_1868    0.417
11688 H2 31.031 26.302 26.005 ho 1868 TIP3_1868    0.417
11689 OH2 36.334 51.903 36.724 oh 1869 TIP3_1869   -0.834
11690 H1 35.767 52.696 36.995 ho 1869 TIP3_1869    0.417
11691 H2 36.791 51.796 37.508 ho 1869 TIP3_1869    0.417
11692 OH2 38.600 42.247 35.418 oh 1870 TIP3_1870   -0.834
11693 H1 38.256 41.385 35.527 ho 1870 TIP3_1870    0.417
11694 H2 38.616 42.337 34.466 ho 1870 TIP3_1870    0.417
11695 OH2 46.862 52.684 27.114 oh 1871 TIP3_1871   -0.834
11696 H1 46.911 53.691 27.133 ho 1871 TIP3_1871    0.417
11697 H2 45.977 52.455 27.405 ho 1871 TIP3_1871    0.417
11698 OH2 32.881 28.518 31.120 oh 1872 TIP3_1872   -0.834
11699 H1 33.550 29.225 31.232 ho 1872 TIP3_1872    0.417
11700 H2 32.070 28.834 31.588 ho 1872 TIP3_1872    0.417
11701 OH2 30.608 48.918 38.379 oh 1873 TIP3_1873   -0.834
11702 H1 29.840 48.622 37.965 ho 1873 TIP3_1873    0.417
11703 H2 31.037 49.336 37.628 ho 1873 TIP3_1873    0.417
11704 OH2 46.943 42.991 25.772 oh 1874 TIP3_1874   -0.834
11705 H1 47.329 42.705 24.892 ho 1874 TIP3_1874    0.417
11706 H2 47.616 42.736 26.398 ho 1874 TIP3_1874    0.417
11707 OH2 47.296 51.862 24.179 oh 1875 TIP3_1875   -0.834
11708 H1 47.019 52.121 25.102 ho 1875 TIP3_1875    0.417
11709 H2 47.121 50.919 24.183 ho 1875 TIP3_1875    0.417
11710 OH2 46.509 29.930 31.740 oh 1876 TIP3_1876   -0.834
11711 H1 46.670 30.832 31.698 ho 1876 TIP3_1876    0.417
11712 H2 47.198 29.587 32.383 ho 1876 TIP3_1876    0.417
11713 OH2 30.450 34.067 30.756 oh 1877 TIP3_1877   -0.834
11714 H1 29.722 33.840 30.130 ho 1877 TIP3_1877    0.417
11715 H2 29.939 33.770 31.537 ho 1877 TIP3_1877    0.417
11716 OH2 36.530 26.980 23.679 oh 1878 TIP3_1878   -0.834
11717 H1 37.370 27.260 23.378 ho 1878 TIP3_1878    0.417
11718 H2 35.985 27.826 23.794 ho 1878 TIP3_1878    0.417
11719 OH2 43.441 41.134 29.260 oh 1879 TIP3_1879   -0.834
11720 H1 43.610 41.488 28.387 ho 1879 TIP3_1879    0.417
11721 H2 44.113 40.407 29.380 ho 1879 TIP3_1879    0.417
11722 OH2 27.583 41.123 37.465 oh 1880 TIP3_1880   -0.834
11723 H1 28.491 41.508 37.479 ho 1880 TIP3_1880    0.417
11724 H2 27.312 41.312 38.307 ho 1880 TIP3_1880    0.417
11725 OH2 38.533 35.550 32.579 oh 1881 TIP3_1881   -0.834
11726 H1 37.608 35.309 32.910 ho 1881 TIP3_1881    0.417
11727 H2 39.008 35.940 33.344 ho 1881 TIP3_1881    0.417
11728 OH2 41.037 55.640 26.848 oh 1882 TIP3_1882   -0.834
11729 H1 41.257 54.742 26.943 ho 1882 TIP3_1882    0.417
11730 H2 40.891 55.862 27.807 ho 1882 TIP3_1882    0.417
11731 OH2 33.782 42.187 27.781 oh 1883 TIP3_1883   -0.834
11732 H1 33.004 41.786 28.217 ho 1883 TIP3_1883    0.417
11733 H2 34.140 41.422 27.390 ho 1883 TIP3_1883    0.417
11734 OH2 34.637 56.703 37.781 oh 1884 TIP3_1884   -0.834
11735 H1 34.551 57.630 37.451 ho 1884 TIP3_1884    0.417
11736 H2 35.377 56.806 38.447 ho 1884 TIP3_1884    0.417
11737 OH2 37.371 54.653 37.310 oh 1885 TIP3_1885   -0.834
11738 H1 38.310 54.891 37.405 ho 1885 TIP3_1885    0.417
11739 H2 36.978 55.381 37.826 ho 1885 TIP3_1885    0.417
11740 OH2 46.619 48.461 35.667 oh 1886 TIP3_1886   -0.834
11741 H1 46.079 48.002 35.018 ho 1886 TIP3_1886    0.417
11742 H2 46.571 47.891 36.491 ho 1886 TIP3_1886    0.417
11743 OH2 35.129 42.485 31.969 oh 1887 TIP3_1887   -0.834
11744 H1 34.231 42.467 32.340 ho 1887 TIP3_1887    0.417
11745 H2 35.108 41.702 31.405 ho 1887 TIP3_1887    0.417
11746 OH2 44.338 34.844 32.944 oh 1888 TIP3_1888   -0.834
11747 H1 44.536 34.211 32.208 ho 1888 TIP3_1888    0.417
11748 H2 45.226 35.133 33.248 ho 1888 TIP3_1888    0.417
11749 OH2 36.137 47.625 23.625 oh 1889 TIP3_1889   -0.834
11750 H1 36.700 47.850 24.434 ho 1889 TIP3_1889    0.417
11751 H2 35.633 48.429 23.484 ho 1889 TIP3_1889    0.417
11752 OH2 40.430 28.274 32.826 oh 1890 TIP3_1890   -0.834
11753 H1 40.458 27.741 33.576 ho 1890 TIP3_1890    0.417
11754 H2 40.933 27.740 32.189 ho 1890 TIP3_1890    0.417
11755 OH2 42.995 50.202 35.842 oh 1891 TIP3_1891   -0.834
11756 H1 43.853 50.548 35.681 ho 1891 TIP3_1891    0.417
11757 H2 43.158 49.442 36.493 ho 1891 TIP3_1891    0.417
11758 OH2 38.116 48.059 25.307 oh 1892 TIP3_1892   -0.834
11759 H1 39.058 47.989 24.988 ho 1892 TIP3_1892    0.417
11760 H2 38.215 47.763 26.192 ho 1892 TIP3_1892    0.417
11761 OH2 25.312 50.584 22.045 oh 1893 TIP3_1893   -0.834
11762 H1 25.703 51.440 22.245 ho 1893 TIP3_1893    0.417
11763 H2 26.037 49.949 21.881 ho 1893 TIP3_1893    0.417
11764 OH2 38.457 45.491 31.964 oh 1894 TIP3_1894   -0.834
11765 H1 38.544 44.713 32.379 ho 1894 TIP3_1894    0.417
11766 H2 38.199 45.170 31.020 ho 1894 TIP3_1894    0.417
11767 OH2 48.400 33.392 35.723 oh 1895 TIP3_1895   -0.834
11768 H1 49.178 32.826 35.708 ho 1895 TIP3_1895    0.417
11769 H2 48.008 33.221 36.638 ho 1895 TIP3_1895    0.417
11770 OH2 46.536 30.530 25.332 oh 1896 TIP3_1896   -0.834
11771 H1 46.187 30.616 24.471 ho 1896 TIP3_1896    0.417
11772 H2 45.802 30.302 25.884 ho 1896 TIP3_1896    0.417
11773 OH2 29.474 50.889 21.270 oh 1897 TIP3_1897   -0.834
11774 H1 29.136 50.428 20.501 ho 1897 TIP3_1897    0.417
11775 H2 28.833 50.631 21.946 ho 1897 TIP3_1897    0.417
11776 OH2 32.294 55.336 29.851 oh 1898 TIP3_1898   -0.834
11777 H1 32.542 56.062 30.334 ho 1898 TIP3_1898    0.417
11778 H2 33.120 54.814 29.835 ho 1898 TIP3_1898    0.417
11779 OH2 32.756 55.127 39.271 oh 1899 TIP3_1899   -0.834
11780 H1 33.321 55.781 38.708 ho 1899 TIP3_1899    0.417
11781 H2 31.864 55.405 38.982 ho 1899 TIP3_1899    0.417
11782 OH2 32.061 49.972 27.962 oh 1900 TIP3_1900   -0.834
11783 H1 32.985 50.260 27.857 ho 1900 TIP3_1900    0.417
11784 H2 32.151 49.003 27.865 ho 1900 TIP3_1900    0.417
11785 OH2 29.109 50.989 35.569 oh 1901 TIP3_1901   -0.834
11786 H1 30.003 50.645 35.770 ho 1901 TIP3_1901    0.417
11787 H2 29.317 51.768 35.003 ho 1901 TIP3_1901    0.417
11788 OH2 41.215 43.513 22.397 oh 1902 TIP3_1902   -0.834
11789 H1 41.803 43.040 21.713 ho 1902 TIP3_1902    0.417
11790 H2 41.099 44.345 21.988 ho 1902 TIP3_1902    0.417
11791 OH2 42.707 51.353 24.018 oh 1903 TIP3_1903   -0.834
11792 H1 43.462 50.861 24.440 ho 1903 TIP3_1903    0.417
11793 H2 41.923 51.153 24.548 ho 1903 TIP3_1903    0.417
11794 OH2 26.247 39.893 21.018 oh 1904 TIP3_1904   -0.834
11795 H1 26.076 40.863 21.159 ho 1904 TIP3_1904    0.417
11796 H2 25.600 39.470 21.550 ho 1904 TIP3_1904    0.417
11797 OH2 45.596 47.332 20.801 oh 1905 TIP3_1905   -0.834
11798 H1 45.138 48.123 21.114 ho 1905 TIP3_1905    0.417
11799 H2 45.765 46.860 21.573 ho 1905 TIP3_1905    0.417
11800 OH2 35.244 35.245 21.023 oh 1906 TIP3_1906   -0.834
11801 H1 34.610 35.406 21.736 ho 1906 TIP3_1906    0.417
11802 H2 35.863 34.574 21.408 ho 1906 TIP3_1906    0.417
11803 OH2 39.113 45.293 23.957 oh 1907 TIP3_1907   -0.834
11804 H1 39.385 44.512 23.459 ho 1907 TIP3_1907    0.417
11805 H2 39.882 45.500 24.484 ho 1907 TIP3_1907    0.417
11806 OH2 26.678 46.942 26.455 oh 1908 TIP3_1908   -0.834
11807 H1 26.272 46.280 27.011 ho 1908 TIP3_1908    0.417
11808 H2 26.498 47.809 26.913 ho 1908 TIP3_1908    0.417
11809 OH2 33.400 30.552 38.977 oh 1909 TIP3_1909   -0.834
11810 H1 34.070 30.240 39.604 ho 1909 TIP3_1909    0.417
11811 H2 32.739 30.945 39.583 ho 1909 TIP3_1909    0.417
11812 OH2 35.050 30.605 31.177 oh 1910 TIP3_1910   -0.834
11813 H1 35.155 31.554 30.976 ho 1910 TIP3_1910    0.417
11814 H2 35.797 30.389 31.728 ho 1910 TIP3_1910    0.417
11815 OH2 26.133 32.080 30.497 oh 1911 TIP3_1911   -0.834
11816 H1 26.201 32.102 29.557 ho 1911 TIP3_1911    0.417
11817 H2 25.358 31.549 30.722 ho 1911 TIP3_1911    0.417
11818 OH2 28.594 38.450 21.330 oh 1912 TIP3_1912   -0.834
11819 H1 27.750 39.022 21.209 ho 1912 TIP3_1912    0.417
11820 H2 28.320 37.503 21.444 ho 1912 TIP3_1912    0.417
11821 OH2 32.574 44.420 30.136 oh 1913 TIP3_1913   -0.834
11822 H1 32.704 44.335 29.099 ho 1913 TIP3_1913    0.417
11823 H2 32.970 45.255 30.377 ho 1913 TIP3_1913    0.417
11824 OH2 27.750 33.844 35.049 oh 1914 TIP3_1914   -0.834
11825 H1 27.110 33.290 35.418 ho 1914 TIP3_1914    0.417
11826 H2 27.164 34.245 34.382 ho 1914 TIP3_1914    0.417
11827 OH2 32.287 35.172 39.234 oh 1915 TIP3_1915   -0.834
11828 H1 31.631 34.473 39.496 ho 1915 TIP3_1915    0.417
11829 H2 33.119 34.669 39.271 ho 1915 TIP3_1915    0.417
11830 OH2 45.613 38.616 36.486 oh 1916 TIP3_1916   -0.834
11831 H1 45.739 38.959 35.638 ho 1916 TIP3_1916    0.417
11832 H2 44.619 38.816 36.670 ho 1916 TIP3_1916    0.417
11833 OH2 29.753 45.139 30.894 oh 1917 TIP3_1917   -0.834
11834 H1 29.769 46.053 31.266 ho 1917 TIP3_1917    0.417
11835 H2 30.663 45.031 30.621 ho 1917 TIP3_1917    0.417
11836 OH2 29.504 41.032 21.557 oh 1918 TIP3_1918   -0.834
11837 H1 29.502 40.015 21.741 ho 1918 TIP3_1918    0.417
11838 H2 28.709 41.107 20.960 ho 1918 TIP3_1918    0.417
11839 OH2 45.028 32.080 34.441 oh 1919 TIP3_1919   -0.834
11840 H1 45.675 32.715 34.502 ho 1919 TIP3_1919    0.417
11841 H2 44.385 32.573 33.947 ho 1919 TIP3_1919    0.417
11842 OH2 33.943 44.607 34.812 oh 1920 TIP3_1920   -0.834
11843 H1 34.890 44.666 34.593 ho 1920 TIP3_1920    0.417
11844 H2 33.551 44.202 34.006 ho 1920 TIP3_1920    0.417
11845 OH2 40.273 36.904 25.111 oh 1921 TIP3_1921   -0.834
11846 H1 40.808 37.306 24.285 ho 1921 TIP3_1921    0.417
11847 H2 40.761 37.245 25.893 ho 1921 TIP3_1921    0.417
11848 OH2 46.148 27.788 30.156 oh 1922 TIP3_1922   -0.834
11849 H1 46.231 28.514 30.700 ho 1922 TIP3_1922    0.417
11850 H2 47.035 27.745 29.718 ho 1922 TIP3_1922    0.417
11851 OH2 43.327 25.375 36.878 oh 1923 TIP3_1923   -0.834
11852 H1 43.825 25.141 37.714 ho 1923 TIP3_1923    0.417
11853 H2 43.403 26.366 36.799 ho 1923 TIP3_1923    0.417
11854 OH2 36.515 47.342 30.247 oh 1924 TIP3_1924   -0.834
11855 H1 35.875 46.911 29.605 ho 1924 TIP3_1924    0.417
11856 H2 36.205 46.919 31.114 ho 1924 TIP3_1924    0.417
11857 OH2 41.318 47.811 33.975 oh 1925 TIP3_1925   -0.834
11858 H1 41.032 48.275 34.764 ho 1925 TIP3_1925    0.417
11859 H2 42.286 47.916 34.002 ho 1925 TIP3_1925    0.417
11860 OH2 41.594 27.298 22.603 oh 1926 TIP3_1926   -0.834
11861 H1 41.239 26.484 23.031 ho 1926 TIP3_1926    0.417
11862 H2 41.370 27.221 21.630 ho 1926 TIP3_1926    0.417
11863 OH2 42.196 43.038 39.197 oh 1927 TIP3_1927   -0.834
11864 H1 42.492 42.085 39.170 ho 1927 TIP3_1927    0.417
11865 H2 41.868 43.082 38.274 ho 1927 TIP3_1927    0.417
11866 OH2 43.311 48.380 37.808 oh 1928 TIP3_1928   -0.834
11867 H1 43.050 47.472 37.831 ho 1928 TIP3_1928    0.417
11868 H2 43.858 48.546 38.587 ho 1928 TIP3_1928    0.417
11869 OH2 25.449 32.366 34.560 oh 1929 TIP3_1929   -0.834
11870 H1 25.202 31.479 34.515 ho 1929 TIP3_1929    0.417
11871 H2 25.796 32.563 33.675 ho 1929 TIP3_1929    0.417
11872 OH2 35.028 49.028 35.426 oh 1930 TIP3_1930   -0.834
11873 H1 35.075 48.132 35.843 ho 1930 TIP3_1930    0.417
11874 H2 35.040 49.627 36.204 ho 1930 TIP3_1930    0.417
11875 OH2 32.529 29.508 26.816 oh 1931 TIP3_1931   -0.834
11876 H1 33.313 29.582 26.276 ho 1931 TIP3_1931    0.417
11877 H2 31.783 29.511 26.188 ho 1931 TIP3_1931    0.417
11878 OH2 42.915 42.015 24.179 oh 1932 TIP3_1932   -0.834
11879 H1 42.149 42.259 24.764 ho 1932 TIP3_1932    0.417
11880 H2 42.888 42.674 23.500 ho 1932 TIP3_1932    0.417
11881 OH2 27.798 30.210 23.459 oh 1933 TIP3_1933   -0.834
11882 H1 27.736 29.379 23.877 ho 1933 TIP3_1933    0.417
11883 H2 26.874 30.427 23.181 ho 1933 TIP3_1933    0.417
11884 OH2 47.412 32.606 38.085 oh 1934 TIP3_1934   -0.834
11885 H1 46.852 32.980 38.808 ho 1934 TIP3_1934    0.417
11886 H2 46.958 31.769 37.912 ho 1934 TIP3_1934    0.417
11887 OH2 36.759 29.167 21.378 oh 1935 TIP3_1935   -0.834
11888 H1 37.186 28.594 20.672 ho 1935 TIP3_1935    0.417
11889 H2 35.968 28.733 21.598 ho 1935 TIP3_1935    0.417
11890 OH2 46.732 34.600 24.529 oh 1936 TIP3_1936   -0.834
11891 H1 47.433 33.967 24.686 ho 1936 TIP3_1936    0.417
11892 H2 45.931 34.253 24.969 ho 1936 TIP3_1936    0.417
11893 OH2 32.929 34.601 29.741 oh 1937 TIP3_1937   -0.834
11894 H1 32.364 35.340 29.331 ho 1937 TIP3_1937    0.417
11895 H2 32.318 34.011 30.240 ho 1937 TIP3_1937    0.417
11896 OH2 35.926 30.365 26.438 oh 1938 TIP3_1938   -0.834
11897 H1 36.138 29.769 27.174 ho 1938 TIP3_1938    0.417
11898 H2 35.657 31.212 26.913 ho 1938 TIP3_1938    0.417
11899 OH2 41.689 51.229 33.708 oh 1939 TIP3_1939   -0.834
11900 H1 42.192 50.791 34.420 ho 1939 TIP3_1939    0.417
11901 H2 41.002 51.674 34.271 ho 1939 TIP3_1939    0.417
11902 OH2 45.998 27.048 24.495 oh 1940 TIP3_1940   -0.834
11903 H1 45.655 27.244 23.621 ho 1940 TIP3_1940    0.417
11904 H2 45.249 27.358 25.009 ho 1940 TIP3_1940    0.417
11905 OH2 40.989 44.751 30.281 oh 1941 TIP3_1941   -0.834
11906 H1 40.952 45.632 29.879 ho 1941 TIP3_1941    0.417
11907 H2 40.557 44.210 29.608 ho 1941 TIP3_1941    0.417
11908 OH2 27.421 28.775 30.477 oh 1942 TIP3_1942   -0.834
11909 H1 27.684 27.934 30.072 ho 1942 TIP3_1942    0.417
11910 H2 28.219 29.340 30.468 ho 1942 TIP3_1942    0.417
11911 OH2 33.971 37.060 24.455 oh 1943 TIP3_1943   -0.834
11912 H1 34.861 36.920 24.816 ho 1943 TIP3_1943    0.417
11913 H2 33.521 36.179 24.529 ho 1943 TIP3_1943    0.417
11914 OH2 34.630 46.547 28.420 oh 1944 TIP3_1944   -0.834
11915 H1 34.601 47.471 28.063 ho 1944 TIP3_1944    0.417
11916 H2 34.287 45.954 27.732 ho 1944 TIP3_1944    0.417
11917 OH2 37.092 55.140 25.767 oh 1945 TIP3_1945   -0.834
11918 H1 36.122 55.034 25.787 ho 1945 TIP3_1945    0.417
11919 H2 37.223 55.785 25.080 ho 1945 TIP3_1945    0.417
11920 OH2 35.426 32.604 27.823 oh 1946 TIP3_1946   -0.834
11921 H1 35.761 33.401 27.413 ho 1946 TIP3_1946    0.417
11922 H2 35.248 32.889 28.727 ho 1946 TIP3_1946    0.417
11923 OH2 40.597 31.453 23.365 oh 1947 TIP3_1947   -0.834
11924 H1 39.943 31.367 22.632 ho 1947 TIP3_1947    0.417
11925 H2 40.781 30.534 23.568 ho 1947 TIP3_1947    0.417
11926 OH2 43.193 42.970 35.170 oh 1948 TIP3_1948   -0.834
11927 H1 42.958 43.911 35.253 ho 1948 TIP3_1948    0.417
11928 H2 44.151 42.990 35.066 ho 1948 TIP3_1948    0.417
11929 OH2 33.448 29.550 23.901 oh 1949 TIP3_1949   -0.834
11930 H1 34.046 30.347 23.835 ho 1949 TIP3_1949    0.417
11931 H2 33.093 29.378 23.035 ho 1949 TIP3_1949    0.417
11932 OH2 44.145 57.320 27.469 oh 1950 TIP3_1950   -0.834
11933 H1 43.988 56.387 27.401 ho 1950 TIP3_1950    0.417
11934 H2 43.252 57.669 27.753 ho 1950 TIP3_1950    0.417
11935 OH2 35.225 52.853 22.912 oh 1951 TIP3_1951   -0.834
11936 H1 35.817 52.801 23.682 ho 1951 TIP3_1951    0.417
11937 H2 35.785 52.736 22.139 ho 1951 TIP3_1951    0.417
11938 OH2 43.479 28.089 26.797 oh 1952 TIP3_1952   -0.834
11939 H1 42.536 28.208 26.994 ho 1952 TIP3_1952    0.417
11940 H2 43.602 27.140 26.616 ho 1952 TIP3_1952    0.417
11941 OH2 42.905 53.143 31.867 oh 1953 TIP3_1953   -0.834
11942 H1 42.174 53.506 31.381 ho 1953 TIP3_1953    0.417
11943 H2 42.474 52.472 32.399 ho 1953 TIP3_1953    0.417
11944 OH2 37.814 42.906 32.802 oh 1954 TIP3_1954   -0.834
11945 H1 38.379 42.410 32.107 ho 1954 TIP3_1954    0.417
11946 H2 36.963 42.994 32.373 ho 1954 TIP3_1954    0.417
11947 OH2 43.766 48.787 29.404 oh 1955 TIP3_1955   -0.834
11948 H1 43.985 48.007 28.877 ho 1955 TIP3_1955    0.417
11949 H2 43.436 48.402 30.202 ho 1955 TIP3_1955    0.417
11950 OH2 33.876 53.437 30.998 oh 1956 TIP3_1956   -0.834
11951 H1 34.227 52.577 30.778 ho 1956 TIP3_1956    0.417
11952 H2 33.790 53.398 31.953 ho 1956 TIP3_1956    0.417
11953 OH2 31.319 56.624 35.525 oh 1957 TIP3_1957   -0.834
11954 H1 32.087 56.877 34.961 ho 1957 TIP3_1957    0.417
11955 H2 30.764 57.421 35.381 ho 1957 TIP3_1957    0.417
11956 OH2 30.458 38.097 30.009 oh 1958 TIP3_1958   -0.834
11957 H1 30.673 38.019 29.031 ho 1958 TIP3_1958    0.417
11958 H2 29.899 38.894 30.077 ho 1958 TIP3_1958    0.417
11959 OH2 45.255 50.983 28.549 oh 1959 TIP3_1959   -0.834
11960 H1 45.472 51.411 29.373 ho 1959 TIP3_1959    0.417
11961 H2 44.868 50.098 28.746 ho 1959 TIP3_1959    0.417
11962 OH2 47.157 51.309 36.075 oh 1960 TIP3_1960   -0.834
11963 H1 47.113 50.340 36.009 ho 1960 TIP3_1960    0.417
11964 H2 46.349 51.567 35.533 ho 1960 TIP3_1960    0.417
11965 OH2 38.460 51.046 23.177 oh 1961 TIP3_1961   -0.834
11966 H1 38.042 51.524 23.883 ho 1961 TIP3_1961    0.417
11967 H2 37.927 51.386 22.395 ho 1961 TIP3_1961    0.417
11968 OH2 33.823 35.581 34.246 oh 1962 TIP3_1962   -0.834
11969 H1 33.183 35.753 33.567 ho 1962 TIP3_1962    0.417
11970 H2 33.389 35.061 34.953 ho 1962 TIP3_1962    0.417
11971 OH2 41.863 56.310 32.762 oh 1963 TIP3_1963   -0.834
11972 H1 42.079 57.272 32.690 ho 1963 TIP3_1963    0.417
11973 H2 42.711 55.861 32.639 ho 1963 TIP3_1963    0.417
11974 OH2 39.076 32.326 25.587 oh 1964 TIP3_1964   -0.834
11975 H1 38.312 32.025 25.038 ho 1964 TIP3_1964    0.417
11976 H2 39.759 32.241 24.952 ho 1964 TIP3_1964    0.417
11977 OH2 41.936 51.039 29.371 oh 1965 TIP3_1965   -0.834
11978 H1 41.552 50.515 30.036 ho 1965 TIP3_1965    0.417
11979 H2 42.731 50.524 29.103 ho 1965 TIP3_1965    0.417
11980 OH2 31.249 52.735 39.088 oh 1966 TIP3_1966   -0.834
11981 H1 31.463 53.358 38.418 ho 1966 TIP3_1966    0.417
11982 H2 32.090 52.243 39.268 ho 1966 TIP3_1966    0.417
11983 OH2 40.347 55.170 37.449 oh 1967 TIP3_1967   -0.834
11984 H1 40.735 54.648 36.718 ho 1967 TIP3_1967    0.417
11985 H2 41.082 55.398 38.002 ho 1967 TIP3_1967    0.417
11986 OH2 38.482 48.455 21.569 oh 1968 TIP3_1968   -0.834
11987 H1 37.774 48.284 22.138 ho 1968 TIP3_1968    0.417
11988 H2 39.246 48.562 22.223 ho 1968 TIP3_1968    0.417
11989 OH2 42.931 39.372 37.014 oh 1969 TIP3_1969   -0.834
11990 H1 42.010 39.424 36.706 ho 1969 TIP3_1969    0.417
11991 H2 42.926 39.956 37.819 ho 1969 TIP3_1969    0.417
11992 OH2 43.812 54.340 28.169 oh 1970 TIP3_1970   -0.834
11993 H1 43.883 54.394 29.097 ho 1970 TIP3_1970    0.417
11994 H2 42.931 53.859 27.967 ho 1970 TIP3_1970    0.417
11995 OH2 42.290 44.292 27.779 oh 1971 TIP3_1971   -0.834
11996 H1 42.571 43.413 27.491 ho 1971 TIP3_1971    0.417
11997 H2 42.248 44.245 28.766 ho 1971 TIP3_1971    0.417
11998 OH2 40.811 40.289 32.619 oh 1972 TIP3_1972   -0.834
11999 H1 40.614 39.969 31.728 ho 1972 TIP3_1972    0.417
12000 H2 41.024 41.198 32.407 ho 1972 TIP3_1972    0.417
12001 OH2 44.943 33.541 26.510 oh 1973 TIP3_1973   -0.834
12002 H1 44.708 32.591 26.689 ho 1973 TIP3_1973    0.417
12003 H2 44.137 34.033 26.625 ho 1973 TIP3_1973    0.417
12004 OH2 30.348 40.459 31.407 oh 1974 TIP3_1974   -0.834
12005 H1 29.942 41.211 31.885 ho 1974 TIP3_1974    0.417
12006 H2 29.964 39.679 31.842 ho 1974 TIP3_1974    0.417
12007 OH2 38.550 46.522 34.984 oh 1975 TIP3_1975   -0.834
12008 H1 38.279 46.744 34.075 ho 1975 TIP3_1975    0.417
12009 H2 38.859 47.419 35.333 ho 1975 TIP3_1975    0.417
12010 OH2 36.200 29.151 28.891 oh 1976 TIP3_1976   -0.834
12011 H1 37.053 29.360 29.348 ho 1976 TIP3_1976    0.417
12012 H2 35.572 29.426 29.558 ho 1976 TIP3_1976    0.417
12013 OH2 32.639 34.597 22.226 oh 1977 TIP3_1977   -0.834
12014 H1 32.373 35.348 21.586 ho 1977 TIP3_1977    0.417
12015 H2 31.740 34.419 22.590 ho 1977 TIP3_1977    0.417
12016 OH2 40.224 40.017 21.629 oh 1978 TIP3_1978   -0.834
12017 H1 40.930 40.715 21.617 ho 1978 TIP3_1978    0.417
12018 H2 39.855 39.938 20.696 ho 1978 TIP3_1978    0.417
12019 OH2 47.042 35.769 31.895 oh 1979 TIP3_1979   -0.834
12020 H1 47.762 36.166 32.483 ho 1979 TIP3_1979    0.417
12021 H2 46.379 36.501 31.766 ho 1979 TIP3_1979    0.417
12022 OH2 32.314 25.228 34.572 oh 1980 TIP3_1980   -0.834
12023 H1 32.447 25.196 33.576 ho 1980 TIP3_1980    0.417
12024 H2 33.219 25.336 34.845 ho 1980 TIP3_1980    0.417
12025 OH2 26.661 31.681 27.363 oh 1981 TIP3_1981   -0.834
12026 H1 26.943 30.739 27.400 ho 1981 TIP3_1981    0.417
12027 H2 25.778 31.599 26.903 ho 1981 TIP3_1981    0.417
12028 OH2 42.254 53.667 39.476 oh 1982 TIP3_1982   -0.834
12029 H1 42.862 54.322 39.579 ho 1982 TIP3_1982    0.417
12030 H2 42.777 52.880 39.296 ho 1982 TIP3_1982    0.417
12031 OH2 47.619 37.548 25.105 oh 1983 TIP3_1983   -0.834
12032 H1 47.607 37.274 25.970 ho 1983 TIP3_1983    0.417
12033 H2 48.204 36.932 24.639 ho 1983 TIP3_1983    0.417
12034 OH2 38.050 39.999 24.594 oh 1984 TIP3_1984   -0.834
12035 H1 38.395 39.317 24.012 ho 1984 TIP3_1984    0.417
12036 H2 38.231 40.835 24.115 ho 1984 TIP3_1984    0.417
12037 OH2 49.149 43.888 31.953 oh 1985 TIP3_1985   -0.834
12038 H1 49.021 44.166 31.020 ho 1985 TIP3_1985    0.417
12039 H2 50.032 44.233 32.142 ho 1985 TIP3_1985    0.417
12040 OH2 32.830 44.751 27.414 oh 1986 TIP3_1986   -0.834
12041 H1 32.257 44.870 26.667 ho 1986 TIP3_1986    0.417
12042 H2 33.329 43.923 27.304 ho 1986 TIP3_1986    0.417
12043 OH2 28.117 36.819 35.490 oh 1987 TIP3_1987   -0.834
12044 H1 28.490 37.496 34.942 ho 1987 TIP3_1987    0.417
12045 H2 28.937 36.583 35.958 ho 1987 TIP3_1987    0.417
12046 OH2 49.020 48.447 34.065 oh 1988 TIP3_1988   -0.834
12047 H1 49.595 48.186 34.761 ho 1988 TIP3_1988    0.417
12048 H2 48.148 48.534 34.561 ho 1988 TIP3_1988    0.417
12049 OH2 34.495 39.416 27.399 oh 1989 TIP3_1989   -0.834
12050 H1 35.354 39.203 26.968 ho 1989 TIP3_1989    0.417
12051 H2 34.165 38.566 27.518 ho 1989 TIP3_1989    0.417
12052 OH2 38.891 26.919 28.412 oh 1990 TIP3_1990   -0.834
12053 H1 39.198 27.681 28.842 ho 1990 TIP3_1990    0.417
12054 H2 38.212 26.577 28.997 ho 1990 TIP3_1990    0.417
12055 OH2 32.682 41.465 21.067 oh 1991 TIP3_1991   -0.834
12056 H1 31.734 41.621 21.083 ho 1991 TIP3_1991    0.417
12057 H2 32.982 41.969 21.884 ho 1991 TIP3_1991    0.417
12058 OH2 30.783 27.433 22.395 oh 1992 TIP3_1992   -0.834
12059 H1 30.391 27.688 23.192 ho 1992 TIP3_1992    0.417
12060 H2 30.667 28.226 21.749 ho 1992 TIP3_1992    0.417
12061 OH2 39.776 29.939 37.863 oh 1993 TIP3_1993   -0.834
12062 H1 39.636 30.952 37.672 ho 1993 TIP3_1993    0.417
12063 H2 38.865 29.712 38.023 ho 1993 TIP3_1993    0.417
12064 OH2 41.691 42.916 32.178 oh 1994 TIP3_1994   -0.834
12065 H1 41.406 43.553 31.511 ho 1994 TIP3_1994    0.417
12066 H2 41.815 43.526 33.002 ho 1994 TIP3_1994    0.417
12067 OH2 33.892 37.977 30.740 oh 1995 TIP3_1995   -0.834
12068 H1 33.119 37.478 30.863 ho 1995 TIP3_1995    0.417
12069 H2 34.342 37.557 29.955 ho 1995 TIP3_1995    0.417
12070 OH2 45.098 45.891 23.031 oh 1996 TIP3_1996   -0.834
12071 H1 45.540 45.750 23.864 ho 1996 TIP3_1996    0.417
12072 H2 45.244 45.046 22.532 ho 1996 TIP3_1996    0.417
12073 OH2 32.849 53.166 26.297 oh 1997 TIP3_1997   -0.834
12074 H1 31.983 52.984 26.695 ho 1997 TIP3_1997    0.417
12075 H2 32.645 53.050 25.325 ho 1997 TIP3_1997    0.417
12076 OH2 28.119 35.325 38.577 oh 1998 TIP3_1998   -0.834
12077 H1 28.598 35.900 37.932 ho 1998 TIP3_1998    0.417
12078 H2 28.440 34.430 38.382 ho 1998 TIP3_1998    0.417
12079 OH2 31.439 30.144 32.875 oh 1999 TIP3_1999   -0.834
12080 H1 32.310 29.836 33.257 ho 1999 TIP3_1999    0.417
12081 H2 31.121 30.819 33.535 ho 1999 TIP3_1999    0.417
12082 OH2 32.472 45.114 22.102 oh 2000 TIP3_2000   -0.834
12083 H1 32.361 45.812 22.743 ho 2000 TIP3_2000    0.417
12084 H2 31.625 44.614 22.322 ho 2000 TIP3_2000    0.417
12085 OH2 46.764 49.024 24.168 oh 2001 TIP3_2001   -0.834
12086 H1 46.455 49.013 23.225 ho 2001 TIP3_2001    0.417
12087 H2 47.091 48.103 24.276 ho 2001 TIP3_2001    0.417
12088 OH2 38.540 47.220 28.168 oh 2002 TIP3_2002   -0.834
12089 H1 37.965 47.475 28.881 ho 2002 TIP3_2002    0.417
12090 H2 39.428 47.404 28.494 ho 2002 TIP3_2002    0.417
12091 OH2 42.817 37.760 32.841 oh 2003 TIP3_2003   -0.834
12092 H1 43.106 37.660 33.808 ho 2003 TIP3_2003    0.417
12093 H2 42.160 38.483 32.867 ho 2003 TIP3_2003    0.417
12094 OH2 42.791 37.260 30.164 oh 2004 TIP3_2004   -0.834
12095 H1 42.329 38.095 30.032 ho 2004 TIP3_2004    0.417
12096 H2 43.004 37.302 31.047 ho 2004 TIP3_2004    0.417
12097 OH2 35.205 55.663 34.021 oh 2005 TIP3_2005   -0.834
12098 H1 35.229 55.950 34.967 ho 2005 TIP3_2005    0.417
12099 H2 35.944 55.051 33.928 ho 2005 TIP3_2005    0.417
12100 OH2 28.230 47.882 37.156 oh 2006 TIP3_2006   -0.834
12101 H1 28.601 46.950 37.090 ho 2006 TIP3_2006    0.417
12102 H2 27.861 47.992 36.272 ho 2006 TIP3_2006    0.417
12103 OH2 35.030 36.441 28.853 oh 2007 TIP3_2007   -0.834
12104 H1 34.274 35.827 28.842 ho 2007 TIP3_2007    0.417
12105 H2 35.533 36.362 28.080 ho 2007 TIP3_2007    0.417
12106 OH2 31.687 49.853 35.768 oh 2008 TIP3_2008   -0.834
12107 H1 32.588 49.883 36.148 ho 2008 TIP3_2008    0.417
12108 H2 31.844 49.632 34.839 ho 2008 TIP3_2008    0.417
12109 OH2 32.784 48.960 24.395 oh 2009 TIP3_2009   -0.834
12110 H1 32.544 48.946 25.343 ho 2009 TIP3_2009    0.417
12111 H2 31.909 48.896 23.993 ho 2009 TIP3_2009    0.417
12112 OH2 46.148 30.715 22.550 oh 2010 TIP3_2010   -0.834
12113 H1 45.772 30.291 21.744 ho 2010 TIP3_2010    0.417
12114 H2 45.817 31.623 22.396 ho 2010 TIP3_2010    0.417
12115 OH2 29.751 44.009 28.233 oh 2011 TIP3_2011   -0.834
12116 H1 29.754 43.978 29.179 ho 2011 TIP3_2011    0.417
12117 H2 30.300 43.306 28.031 ho 2011 TIP3_2011    0.417
12118 OH2 45.395 34.570 37.053 oh 2012 TIP3_2012   -0.834
12119 H1 46.018 33.889 37.275 ho 2012 TIP3_2012    0.417
12120 H2 45.725 35.313 37.521 ho 2012 TIP3_2012    0.417
12121 OH2 30.461 31.754 27.363 oh 2013 TIP3_2013   -0.834
12122 H1 31.412 31.627 27.438 ho 2013 TIP3_2013    0.417
12123 H2 30.209 30.956 26.853 ho 2013 TIP3_2013    0.417
12124 OH2 41.365 45.733 25.341 oh 2014 TIP3_2014   -0.834
12125 H1 41.932 46.414 24.898 ho 2014 TIP3_2014    0.417
12126 H2 41.760 45.817 26.195 ho 2014 TIP3_2014    0.417
12127 OH2 38.524 56.510 30.170 oh 2015 TIP3_2015   -0.834
12128 H1 39.302 57.013 29.850 ho 2015 TIP3_2015    0.417
12129 H2 37.790 56.810 29.682 ho 2015 TIP3_2015    0.417
12130 OH2 45.306 51.975 31.557 oh 2016 TIP3_2016   -0.834
12131 H1 44.429 52.310 31.677 ho 2016 TIP3_2016    0.417
12132 H2 45.838 52.794 31.439 ho 2016 TIP3_2016    0.417
12133 OH2 36.642 44.030 30.286 oh 2017 TIP3_2017   -0.834
12134 H1 35.752 43.786 30.628 ho 2017 TIP3_2017    0.417
12135 H2 36.534 44.147 29.316 ho 2017 TIP3_2017    0.417
12136 OH2 38.220 49.494 38.511 oh 2018 TIP3_2018   -0.834
12137 H1 37.891 50.383 38.706 ho 2018 TIP3_2018    0.417
12138 H2 38.056 48.918 39.272 ho 2018 TIP3_2018    0.417
12139 OH2 38.185 42.607 23.124 oh 2019 TIP3_2019   -0.834
12140 H1 38.737 42.655 22.290 ho 2019 TIP3_2019    0.417
12141 H2 37.330 42.296 22.765 ho 2019 TIP3_2019    0.417
12142 OH2 49.035 36.437 36.362 oh 2020 TIP3_2020   -0.834
12143 H1 49.407 37.347 36.258 ho 2020 TIP3_2020    0.417
12144 H2 48.483 36.342 35.572 ho 2020 TIP3_2020    0.417
12145 OH2 46.371 42.885 31.295 oh 2021 TIP3_2021   -0.834
12146 H1 45.731 42.190 31.621 ho 2021 TIP3_2021    0.417
12147 H2 47.157 42.771 31.799 ho 2021 TIP3_2021    0.417
12148 OH2 30.150 36.685 37.413 oh 2022 TIP3_2022   -0.834
12149 H1 30.312 37.641 37.439 ho 2022 TIP3_2022    0.417
12150 H2 30.614 36.405 38.198 ho 2022 TIP3_2022    0.417
12151 OH2 37.113 25.921 30.362 oh 2023 TIP3_2023   -0.834
12152 H1 37.819 25.635 30.982 ho 2023 TIP3_2023    0.417
12153 H2 36.814 26.896 30.642 ho 2023 TIP3_2023    0.417
12154 OH2 38.039 35.511 37.197 oh 2024 TIP3_2024   -0.834
12155 H1 38.825 35.589 36.701 ho 2024 TIP3_2024    0.417
12156 H2 37.883 36.473 37.336 ho 2024 TIP3_2024    0.417
12157 OH2 49.111 47.000 31.845 oh 2025 TIP3_2025   -0.834
12158 H1 48.832 47.636 32.511 ho 2025 TIP3_2025    0.417
12159 H2 48.879 47.428 30.953 ho 2025 TIP3_2025    0.417
12160 OH2 46.505 33.198 31.565 oh 2026 TIP3_2026   -0.834
12161 H1 46.809 34.071 31.739 ho 2026 TIP3_2026    0.417
12162 H2 46.328 33.249 30.616 ho 2026 TIP3_2026    0.417
12163 OH2 48.323 54.785 35.223 oh 2027 TIP3_2027   -0.834
12164 H1 49.151 55.268 35.038 ho 2027 TIP3_2027    0.417
12165 H2 48.301 54.193 34.556 ho 2027 TIP3_2027    0.417
12166 OH2 48.527 32.393 24.857 oh 2028 TIP3_2028   -0.834
12167 H1 47.851 31.731 25.100 ho 2028 TIP3_2028    0.417
12168 H2 49.263 31.797 24.624 ho 2028 TIP3_2028    0.417
12169 OH2 43.651 29.649 33.840 oh 2029 TIP3_2029   -0.834
12170 H1 44.326 30.322 33.988 ho 2029 TIP3_2029    0.417
12171 H2 43.363 29.744 32.912 ho 2029 TIP3_2029    0.417
12172 OH2 40.729 46.067 21.596 oh 2030 TIP3_2030   -0.834
12173 H1 40.945 46.773 21.035 ho 2030 TIP3_2030    0.417
12174 H2 40.305 46.495 22.404 ho 2030 TIP3_2030    0.417
12175 OH2 31.703 51.593 30.267 oh 2031 TIP3_2031   -0.834
12176 H1 32.407 52.207 30.181 ho 2031 TIP3_2031    0.417
12177 H2 31.716 51.068 29.433 ho 2031 TIP3_2031    0.417
12178 OH2 32.053 42.744 23.511 oh 2032 TIP3_2032   -0.834
12179 H1 31.421 42.899 24.193 ho 2032 TIP3_2032    0.417
12180 H2 32.835 42.530 24.000 ho 2032 TIP3_2032    0.417
12181 OH2 44.917 51.551 34.460 oh 2033 TIP3_2033   -0.834
12182 H1 45.120 51.190 33.560 ho 2033 TIP3_2033    0.417
12183 H2 44.806 52.508 34.291 ho 2033 TIP3_2033    0.417
12184 OH2 47.125 28.462 35.872 oh 2034 TIP3_2034   -0.834
12185 H1 46.341 28.965 36.267 ho 2034 TIP3_2034    0.417
12186 H2 47.548 29.227 35.440 ho 2034 TIP3_2034    0.417
12187 OH2 30.490 44.215 25.157 oh 2035 TIP3_2035   -0.834
12188 H1 30.221 45.064 25.475 ho 2035 TIP3_2035    0.417
12189 H2 29.694 43.917 24.696 ho 2035 TIP3_2035    0.417
12190 OH2 39.603 43.110 28.633 oh 2036 TIP3_2036   -0.834
12191 H1 39.275 42.655 29.383 ho 2036 TIP3_2036    0.417
12192 H2 38.842 43.606 28.297 ho 2036 TIP3_2036    0.417
12193 OH2 41.419 56.379 29.847 oh 2037 TIP3_2037   -0.834
12194 H1 41.503 56.761 30.704 ho 2037 TIP3_2037    0.417
12195 H2 41.337 55.424 29.994 ho 2037 TIP3_2037    0.417
12196 OH2 44.993 55.539 36.953 oh 2038 TIP3_2038   -0.834
12197 H1 45.630 56.251 37.002 ho 2038 TIP3_2038    0.417
12198 H2 45.051 55.203 37.883 ho 2038 TIP3_2038    0.417
12199 OH2 33.236 32.987 26.064 oh 2039 TIP3_2039   -0.834
12200 H1 33.544 32.810 25.168 ho 2039 TIP3_2039    0.417
12201 H2 34.065 32.780 26.504 ho 2039 TIP3_2039    0.417
12202 OH2 41.126 39.701 29.997 oh 2040 TIP3_2040   -0.834
12203 H1 41.070 39.272 29.146 ho 2040 TIP3_2040    0.417
12204 H2 41.805 40.454 29.865 ho 2040 TIP3_2040    0.417
12205 OH2 30.160 38.744 33.373 oh 2041 TIP3_2041   -0.834
12206 H1 31.048 38.422 33.627 ho 2041 TIP3_2041    0.417
12207 H2 30.008 39.493 33.948 ho 2041 TIP3_2041    0.417
12208 OH2 39.682 36.334 39.808 oh 2042 TIP3_2042   -0.834
12209 H1 40.236 36.941 39.296 ho 2042 TIP3_2042    0.417
12210 H2 39.266 35.683 39.183 ho 2042 TIP3_2042    0.417
12211 OH2 26.314 34.385 32.592 oh 2043 TIP3_2043   -0.834
12212 H1 26.333 33.706 31.864 ho 2043 TIP3_2043    0.417
12213 H2 27.056 34.953 32.399 ho 2043 TIP3_2043    0.417
12214 OH2 29.821 45.603 36.659 oh 2044 TIP3_2044   -0.834
12215 H1 30.466 45.782 37.382 ho 2044 TIP3_2044    0.417
12216 H2 30.384 45.914 35.876 ho 2044 TIP3_2044    0.417
12217 OH2 45.520 30.703 36.844 oh 2045 TIP3_2045   -0.834
12218 H1 44.750 30.159 37.140 ho 2045 TIP3_2045    0.417
12219 H2 45.178 31.209 36.018 ho 2045 TIP3_2045    0.417
12220 OH2 31.140 28.669 29.123 oh 2046 TIP3_2046   -0.834
12221 H1 31.732 28.837 28.369 ho 2046 TIP3_2046    0.417
12222 H2 31.807 28.408 29.797 ho 2046 TIP3_2046    0.417
12223 OH2 25.913 37.320 26.357 oh 2047 TIP3_2047   -0.834
12224 H1 25.623 36.700 25.688 ho 2047 TIP3_2047    0.417
12225 H2 26.290 36.784 27.047 ho 2047 TIP3_2047    0.417
12226 OH2 36.757 33.448 22.555 oh 2048 TIP3_2048   -0.834
12227 H1 37.357 34.151 22.968 ho 2048 TIP3_2048    0.417
12228 H2 37.373 32.825 22.199 ho 2048 TIP3_2048    0.417
12229 OH2 31.857 36.138 32.248 oh 2049 TIP3_2049   -0.834
12230 H1 31.107 36.750 32.219 ho 2049 TIP3_2049    0.417
12231 H2 31.480 35.387 31.773 ho 2049 TIP3_2049    0.417
12232 OH2 46.664 36.800 38.206 oh 2050 TIP3_2050   -0.834
12233 H1 46.444 37.524 37.639 ho 2050 TIP3_2050    0.417
12234 H2 47.536 36.532 37.892 ho 2050 TIP3_2050    0.417
12235 OH2 40.204 48.340 36.549 oh 2051 TIP3_2051   -0.834
12236 H1 39.567 48.666 37.260 ho 2051 TIP3_2051    0.417
12237 H2 41.036 48.766 36.801 ho 2051 TIP3_2051    0.417
12238 OH2 48.213 30.241 34.247 oh 2052 TIP3_2052   -0.834
12239 H1 49.050 29.674 34.535 ho 2052 TIP3_2052    0.417
12240 H2 48.460 31.086 34.593 ho 2052 TIP3_2052    0.417
12241 OH2 28.309 32.710 21.643 oh 2053 TIP3_2053   -0.834
12242 H1 28.608 33.229 22.471 ho 2053 TIP3_2053    0.417
12243 H2 27.726 32.034 21.965 ho 2053 TIP3_2053    0.417
12244 OH2 29.654 30.717 30.442 oh 2054 TIP3_2054   -0.834
12245 H1 30.059 30.126 29.815 ho 2054 TIP3_2054    0.417
12246 H2 30.409 30.785 31.053 ho 2054 TIP3_2054    0.417
12247 OH2 34.892 38.996 22.593 oh 2055 TIP3_2055   -0.834
12248 H1 35.473 39.238 23.338 ho 2055 TIP3_2055    0.417
12249 H2 34.578 38.153 22.904 ho 2055 TIP3_2055    0.417
12250 OH2 44.100 39.445 24.145 oh 2056 TIP3_2056   -0.834
12251 H1 43.555 40.278 24.075 ho 2056 TIP3_2056    0.417
12252 H2 44.665 39.683 24.880 ho 2056 TIP3_2056    0.417
12253 OH2 27.509 28.505 38.329 oh 2057 TIP3_2057   -0.834
12254 H1 27.114 29.138 37.734 ho 2057 TIP3_2057    0.417
12255 H2 27.715 27.712 37.802 ho 2057 TIP3_2057    0.417
12256 OH2 36.959 52.405 25.062 oh 2058 TIP3_2058   -0.834
12257 H1 36.535 52.180 25.877 ho 2058 TIP3_2058    0.417
12258 H2 37.479 53.214 25.359 ho 2058 TIP3_2058    0.417
12259 OH2 40.727 51.799 36.891 oh 2059 TIP3_2059   -0.834
12260 H1 41.447 51.161 37.214 ho 2059 TIP3_2059    0.417
12261 H2 40.668 52.359 37.635 ho 2059 TIP3_2059    0.417
12262 OH2 38.663 51.432 31.948 oh 2060 TIP3_2060   -0.834
12263 H1 38.851 51.261 32.901 ho 2060 TIP3_2060    0.417
12264 H2 38.355 52.375 31.952 ho 2060 TIP3_2060    0.417
12265 OH2 40.022 45.855 38.251 oh 2061 TIP3_2061   -0.834
12266 H1 39.222 45.809 38.712 ho 2061 TIP3_2061    0.417
12267 H2 39.673 46.057 37.338 ho 2061 TIP3_2061    0.417
12268 OH2 38.263 48.513 32.745 oh 2062 TIP3_2062   -0.834
12269 H1 39.083 48.900 33.108 ho 2062 TIP3_2062    0.417
12270 H2 38.669 47.803 32.159 ho 2062 TIP3_2062    0.417
12271 OH2 41.886 48.849 26.982 oh 2063 TIP3_2063   -0.834
12272 H1 42.726 49.125 26.462 ho 2063 TIP3_2063    0.417
12273 H2 41.251 49.508 26.670 ho 2063 TIP3_2063    0.417
12274 OH2 31.013 41.085 28.746 oh 2064 TIP3_2064   -0.834
12275 H1 31.016 41.035 29.712 ho 2064 TIP3_2064    0.417
12276 H2 30.249 40.516 28.466 ho 2064 TIP3_2064    0.417
12277 OH2 34.016 29.086 34.233 oh 2065 TIP3_2065   -0.834
12278 H1 34.377 30.001 34.232 ho 2065 TIP3_2065    0.417
12279 H2 33.726 28.741 35.080 ho 2065 TIP3_2065    0.417
12280 OH2 30.186 41.696 37.492 oh 2066 TIP3_2066   -0.834
12281 H1 31.083 41.979 37.236 ho 2066 TIP3_2066    0.417
12282 H2 30.337 40.832 37.910 ho 2066 TIP3_2066    0.417
12283 OH2 32.027 27.224 38.830 oh 2067 TIP3_2067   -0.834
12284 H1 31.185 27.801 38.954 ho 2067 TIP3_2067    0.417
12285 H2 31.692 26.403 39.161 ho 2067 TIP3_2067    0.417
12286 OH2 41.096 33.405 36.048 oh 2068 TIP3_2068   -0.834
12287 H1 41.085 34.390 36.134 ho 2068 TIP3_2068    0.417
12288 H2 41.077 33.348 35.041 ho 2068 TIP3_2068    0.417
12289 OH2 38.912 51.462 27.705 oh 2069 TIP3_2069   -0.834
12290 H1 38.667 52.388 27.959 ho 2069 TIP3_2069    0.417
12291 H2 38.488 50.916 28.420 ho 2069 TIP3_2069    0.417
12292 OH2 47.736 50.421 31.238 oh 2070 TIP3_2070   -0.834
12293 H1 47.831 49.722 30.502 ho 2070 TIP3_2070    0.417
12294 H2 46.816 50.685 31.272 ho 2070 TIP3_2070    0.417
12295 OH2 47.471 55.711 21.456 oh 2071 TIP3_2071   -0.834
12296 H1 47.376 56.718 21.358 ho 2071 TIP3_2071    0.417
12297 H2 46.952 55.563 22.308 ho 2071 TIP3_2071    0.417
12298 OH2 46.508 27.069 21.357 oh 2072 TIP3_2072   -0.834
12299 H1 45.686 27.399 21.759 ho 2072 TIP3_2072    0.417
12300 H2 46.478 27.224 20.392 ho 2072 TIP3_2072    0.417
12301 OH2 40.188 50.770 25.417 oh 2073 TIP3_2073   -0.834
12302 H1 39.279 50.567 25.109 ho 2073 TIP3_2073    0.417
12303 H2 40.058 51.025 26.339 ho 2073 TIP3_2073    0.417
12304 OH2 47.645 37.219 28.547 oh 2074 TIP3_2074   -0.834
12305 H1 46.963 37.815 28.919 ho 2074 TIP3_2074    0.417
12306 H2 47.260 36.274 28.734 ho 2074 TIP3_2074    0.417
12307 OH2 48.513 57.168 26.976 oh 2075 TIP3_2075   -0.834
12308 H1 47.857 56.774 26.300 ho 2075 TIP3_2075    0.417
12309 H2 49.399 56.777 26.724 ho 2075 TIP3_2075    0.417
12310 OH2 29.430 46.688 25.653 oh 2076 TIP3_2076   -0.834
12311 H1 29.642 47.161 24.838 ho 2076 TIP3_2076    0.417
12312 H2 28.468 46.740 25.685 ho 2076 TIP3_2076    0.417
12313 OH2 29.539 27.605 33.715 oh 2077 TIP3_2077   -0.834
12314 H1 30.460 27.702 33.543 ho 2077 TIP3_2077    0.417
12315 H2 29.434 26.616 33.783 ho 2077 TIP3_2077    0.417
12316 OH2 38.240 35.717 23.637 oh 2078 TIP3_2078   -0.834
12317 H1 38.340 36.652 23.258 ho 2078 TIP3_2078    0.417
12318 H2 38.840 35.789 24.397 ho 2078 TIP3_2078    0.417
12319 OH2 48.915 41.203 29.641 oh 2079 TIP3_2079   -0.834
12320 H1 49.358 40.936 30.484 ho 2079 TIP3_2079    0.417
12321 H2 48.944 40.346 29.188 ho 2079 TIP3_2079    0.417
12322 OH2 35.219 50.985 30.587 oh 2080 TIP3_2080   -0.834
12323 H1 35.691 50.282 30.198 ho 2080 TIP3_2080    0.417
12324 H2 35.349 50.758 31.551 ho 2080 TIP3_2080    0.417
12325 OH2 44.287 47.590 34.149 oh 2081 TIP3_2081   -0.834
12326 H1 44.768 47.291 33.453 ho 2081 TIP3_2081    0.417
12327 H2 44.323 46.826 34.786 ho 2081 TIP3_2081    0.417
12328 OH2 40.427 38.899 38.838 oh 2082 TIP3_2082   -0.834
12329 H1 40.598 39.703 39.335 ho 2082 TIP3_2082    0.417
12330 H2 39.569 39.032 38.413 ho 2082 TIP3_2082    0.417
12331 OH2 38.371 31.342 21.582 oh 2083 TIP3_2083   -0.834
12332 H1 38.386 31.679 20.661 ho 2083 TIP3_2083    0.417
12333 H2 37.873 30.495 21.533 ho 2083 TIP3_2083    0.417
12334 OH2 37.336 39.905 34.770 oh 2084 TIP3_2084   -0.834
12335 H1 36.849 40.588 34.302 ho 2084 TIP3_2084    0.417
12336 H2 36.568 39.375 35.189 ho 2084 TIP3_2084    0.417
12337 OH2 38.867 29.624 29.373 oh 2085 TIP3_2085   -0.834
12338 H1 39.067 29.641 30.323 ho 2085 TIP3_2085    0.417
12339 H2 39.122 30.494 29.067 ho 2085 TIP3_2085    0.417
12340 OH2 36.763 44.614 35.378 oh 2086 TIP3_2086   -0.834
12341 H1 37.279 45.405 35.285 ho 2086 TIP3_2086    0.417
12342 H2 37.435 43.905 35.321 ho 2086 TIP3_2086    0.417
12343 OH2 48.865 26.827 30.084 oh 2087 TIP3_2087   -0.834
12344 H1 48.526 25.972 29.864 ho 2087 TIP3_2087    0.417
12345 H2 49.483 26.657 30.889 ho 2087 TIP3_2087    0.417
12346 OH2 48.131 43.985 39.101 oh 2088 TIP3_2088   -0.834
12347 H1 47.287 43.784 38.625 ho 2088 TIP3_2088    0.417
12348 H2 48.593 43.145 39.072 ho 2088 TIP3_2088    0.417
12349 OH2 34.935 37.876 35.611 oh 2089 TIP3_2089   -0.834
12350 H1 34.709 37.098 35.053 ho 2089 TIP3_2089    0.417
12351 H2 34.472 37.766 36.438 ho 2089 TIP3_2089    0.417
12352 OH2 44.071 42.278 26.801 oh 2090 TIP3_2090   -0.834
12353 H1 43.891 42.060 25.856 ho 2090 TIP3_2090    0.417
12354 H2 44.885 41.781 26.928 ho 2090 TIP3_2090    0.417
12355 OH2 34.345 56.960 31.323 oh 2091 TIP3_2091   -0.834
12356 H1 34.488 56.566 32.253 ho 2091 TIP3_2091    0.417
12357 H2 33.899 57.828 31.460 ho 2091 TIP3_2091    0.417
12358 OH2 39.691 38.817 34.469 oh 2092 TIP3_2092   -0.834
12359 H1 40.162 39.372 33.805 ho 2092 TIP3_2092    0.417
12360 H2 38.821 39.250 34.533 ho 2092 TIP3_2092    0.417
12361 OH2 26.124 47.962 38.934 oh 2093 TIP3_2093   -0.834
12362 H1 26.837 47.901 38.280 ho 2093 TIP3_2093    0.417
12363 H2 25.685 48.799 38.729 ho 2093 TIP3_2093    0.417
12364 OH2 37.273 30.424 35.824 oh 2094 TIP3_2094   -0.834
12365 H1 37.384 29.472 35.630 ho 2094 TIP3_2094    0.417
12366 H2 38.153 30.714 35.921 ho 2094 TIP3_2094    0.417
12367 OH2 45.199 33.399 22.319 oh 2095 TIP3_2095   -0.834
12368 H1 44.257 33.354 22.335 ho 2095 TIP3_2095    0.417
12369 H2 45.400 33.787 23.137 ho 2095 TIP3_2095    0.417
12370 OH2 35.674 33.909 30.406 oh 2096 TIP3_2096   -0.834
12371 H1 35.998 33.871 31.351 ho 2096 TIP3_2096    0.417
12372 H2 34.748 34.270 30.495 ho 2096 TIP3_2096    0.417
12373 OH2 40.414 31.569 27.920 oh 2097 TIP3_2097   -0.834
12374 H1 41.224 31.858 27.547 ho 2097 TIP3_2097    0.417
12375 H2 39.808 31.700 27.091 ho 2097 TIP3_2097    0.417
12376 OH2 29.412 53.685 23.681 oh 2098 TIP3_2098   -0.834
12377 H1 30.284 53.809 23.294 ho 2098 TIP3_2098    0.417
12378 H2 29.537 53.328 24.630 ho 2098 TIP3_2098    0.417
12379 OH2 42.517 36.858 38.430 oh 2099 TIP3_2099   -0.834
12380 H1 42.640 36.773 37.458 ho 2099 TIP3_2099    0.417
12381 H2 42.289 37.781 38.549 ho 2099 TIP3_2099    0.417
12382 OH2 46.720 45.988 33.473 oh 2100 TIP3_2100   -0.834
12383 H1 47.147 45.491 34.200 ho 2100 TIP3_2100    0.417
12384 H2 47.486 46.373 33.042 ho 2100 TIP3_2100    0.417
12385 OH2 35.694 41.777 22.031 oh 2101 TIP3_2101   -0.834
12386 H1 35.245 42.250 22.798 ho 2101 TIP3_2101    0.417
12387 H2 35.453 40.882 22.245 ho 2101 TIP3_2101    0.417
12388 OH2 48.999 39.341 36.639 oh 2102 TIP3_2102   -0.834
12389 H1 48.278 39.589 36.141 ho 2102 TIP3_2102    0.417
12390 H2 49.589 40.081 36.468 ho 2102 TIP3_2102    0.417
12391 OH2 28.786 41.318 26.730 oh 2103 TIP3_2103   -0.834
12392 H1 28.781 40.388 26.615 ho 2103 TIP3_2103    0.417
12393 H2 29.528 41.580 26.200 ho 2103 TIP3_2103    0.417
12394 OH2 27.073 42.264 24.494 oh 2104 TIP3_2104   -0.834
12395 H1 26.323 41.743 24.703 ho 2104 TIP3_2104    0.417
12396 H2 27.640 41.917 25.193 ho 2104 TIP3_2104    0.417
12397 OH2 41.008 42.797 36.829 oh 2105 TIP3_2105   -0.834
12398 H1 41.695 42.702 36.104 ho 2105 TIP3_2105    0.417
12399 H2 40.186 42.521 36.362 ho 2105 TIP3_2105    0.417
12400 OH2 44.310 28.094 22.547 oh 2106 TIP3_2106   -0.834
12401 H1 43.474 28.166 21.917 ho 2106 TIP3_2106    0.417
12402 H2 44.165 28.741 23.223 ho 2106 TIP3_2106    0.417
12403 OH2 27.344 35.571 28.044 oh 2107 TIP3_2107   -0.834
12404 H1 27.122 35.753 28.973 ho 2107 TIP3_2107    0.417
12405 H2 27.947 34.791 28.037 ho 2107 TIP3_2107    0.417
12406 OH2 38.639 41.098 30.689 oh 2108 TIP3_2108   -0.834
12407 H1 39.099 40.394 30.292 ho 2108 TIP3_2108    0.417
12408 H2 37.755 40.724 30.762 ho 2108 TIP3_2108    0.417
12409 OH2 42.285 56.754 24.333 oh 2109 TIP3_2109   -0.834
12410 H1 41.920 56.245 25.070 ho 2109 TIP3_2109    0.417
12411 H2 41.777 57.564 24.293 ho 2109 TIP3_2109    0.417
12412 OH2 34.427 55.942 23.632 oh 2110 TIP3_2110   -0.834
12413 H1 33.788 55.295 23.229 ho 2110 TIP3_2110    0.417
12414 H2 34.156 55.988 24.564 ho 2110 TIP3_2110    0.417
12415 OH2 48.435 29.175 22.873 oh 2111 TIP3_2111   -0.834
12416 H1 47.727 29.751 22.535 ho 2111 TIP3_2111    0.417
12417 H2 48.892 29.583 23.592 ho 2111 TIP3_2111    0.417
12418 OH2 26.312 38.577 39.249 oh 2112 TIP3_2112   -0.834
12419 H1 26.594 38.350 38.382 ho 2112 TIP3_2112    0.417
12420 H2 25.905 39.443 39.053 ho 2112 TIP3_2112    0.417
12421 OH2 26.414 56.430 37.722 oh 2113 TIP3_2113   -0.834
12422 H1 27.075 55.965 37.171 ho 2113 TIP3_2113    0.417
12423 H2 26.742 57.354 37.760 ho 2113 TIP3_2113    0.417
12424 OH2 47.691 54.073 31.570 oh 2114 TIP3_2114   -0.834
12425 H1 48.249 53.638 30.958 ho 2114 TIP3_2114    0.417
12426 H2 47.694 53.441 32.339 ho 2114 TIP3_2114    0.417
12427 OH2 29.649 52.814 33.742 oh 2115 TIP3_2115   -0.834
12428 H1 30.269 53.535 33.426 ho 2115 TIP3_2115    0.417
12429 H2 28.772 53.055 33.380 ho 2115 TIP3_2115    0.417
12430 OH2 28.661 50.314 31.089 oh 2116 TIP3_2116   -0.834
12431 H1 29.172 49.871 30.415 ho 2116 TIP3_2116    0.417
12432 H2 29.048 50.053 31.889 ho 2116 TIP3_2116    0.417
12433 OH2 28.320 26.439 29.113 oh 2117 TIP3_2117   -0.834
12434 H1 28.018 26.263 28.214 ho 2117 TIP3_2117    0.417
12435 H2 29.218 26.737 28.953 ho 2117 TIP3_2117    0.417
12436 OH2 44.393 30.759 27.105 oh 2118 TIP3_2118   -0.834
12437 H1 44.002 29.888 27.137 ho 2118 TIP3_2118    0.417
12438 H2 44.316 31.082 28.005 ho 2118 TIP3_2118    0.417
12439 OH2 40.898 28.293 27.067 oh 2119 TIP3_2119   -0.834
12440 H1 40.837 28.977 27.779 ho 2119 TIP3_2119    0.417
12441 H2 40.065 27.796 27.209 ho 2119 TIP3_2119    0.417
12442 OH2 29.028 32.699 38.196 oh 2120 TIP3_2120   -0.834
12443 H1 29.577 32.193 37.558 ho 2120 TIP3_2120    0.417
12444 H2 28.171 32.320 37.964 ho 2120 TIP3_2120    0.417
12445 OH2 40.158 40.218 26.872 oh 2121 TIP3_2121   -0.834
12446 H1 40.286 41.123 26.580 ho 2121 TIP3_2121    0.417
12447 H2 39.175 40.219 27.007 ho 2121 TIP3_2121    0.417
12448 OH2 28.777 34.752 23.515 oh 2122 TIP3_2122   -0.834
12449 H1 29.281 35.514 23.883 ho 2122 TIP3_2122    0.417
12450 H2 28.542 34.241 24.285 ho 2122 TIP3_2122    0.417
12451 OH2 41.065 50.442 21.863 oh 2123 TIP3_2123   -0.834
12452 H1 41.635 50.925 22.452 ho 2123 TIP3_2123    0.417
12453 H2 40.175 50.616 22.164 ho 2123 TIP3_2123    0.417
12454 OH2 38.755 50.794 34.939 oh 2124 TIP3_2124   -0.834
12455 H1 37.826 50.669 35.187 ho 2124 TIP3_2124    0.417
12456 H2 39.148 50.751 35.794 ho 2124 TIP3_2124    0.417
12457 OH2 27.278 28.922 26.620 oh 2125 TIP3_2125   -0.834
12458 H1 27.701 28.392 25.980 ho 2125 TIP3_2125    0.417
12459 H2 26.556 28.406 26.835 ho 2125 TIP3_2125    0.417
12460 OH2 25.675 36.574 36.371 oh 2126 TIP3_2126   -0.834
12461 H1 26.597 36.546 35.993 ho 2126 TIP3_2126    0.417
12462 H2 25.265 37.150 35.758 ho 2126 TIP3_2126    0.417
12463 OH2 32.334 42.973 32.509 oh 2127 TIP3_2127   -0.834
12464 H1 32.571 43.390 31.620 ho 2127 TIP3_2127    0.417
12465 H2 31.533 42.444 32.305 ho 2127 TIP3_2127    0.417
12466 OH2 29.618 33.125 33.197 oh 2128 TIP3_2128   -0.834
12467 H1 30.405 32.919 33.733 ho 2128 TIP3_2128    0.417
12468 H2 29.002 33.458 33.841 ho 2128 TIP3_2128    0.417
12469 OH2 40.742 26.825 35.194 oh 2129 TIP3_2129   -0.834
12470 H1 41.699 26.554 35.148 ho 2129 TIP3_2129    0.417
12471 H2 40.249 26.174 35.791 ho 2129 TIP3_2129    0.417
12472 OH2 39.269 35.001 29.788 oh 2130 TIP3_2130   -0.834
12473 H1 39.973 35.528 30.171 ho 2130 TIP3_2130    0.417
12474 H2 38.690 34.859 30.511 ho 2130 TIP3_2130    0.417
12475 OH2 36.352 55.601 21.013 oh 2131 TIP3_2131   -0.834
12476 H1 37.269 55.816 20.919 ho 2131 TIP3_2131    0.417
12477 H2 36.165 55.897 21.913 ho 2131 TIP3_2131    0.417
12478 OH2 42.747 35.302 23.744 oh 2132 TIP3_2132   -0.834
12479 H1 42.093 36.009 23.571 ho 2132 TIP3_2132    0.417
12480 H2 43.533 35.923 23.611 ho 2132 TIP3_2132    0.417
12481 OH2 46.404 48.372 38.842 oh 2133 TIP3_2133   -0.834
12482 H1 47.157 48.832 38.510 ho 2133 TIP3_2133    0.417
12483 H2 46.702 47.597 39.355 ho 2133 TIP3_2133    0.417
12484 OH2 41.825 38.058 23.172 oh 2134 TIP3_2134   -0.834
12485 H1 42.680 38.487 23.423 ho 2134 TIP3_2134    0.417
12486 H2 41.420 38.679 22.541 ho 2134 TIP3_2134    0.417
12487 OH2 37.868 49.879 29.746 oh 2135 TIP3_2135   -0.834
12488 H1 38.178 50.390 30.537 ho 2135 TIP3_2135    0.417
12489 H2 38.189 49.009 29.922 ho 2135 TIP3_2135    0.417
12490 OH2 31.844 38.660 25.615 oh 2136 TIP3_2136   -0.834
12491 H1 32.700 38.479 25.122 ho 2136 TIP3_2136    0.417
12492 H2 31.586 39.545 25.382 ho 2136 TIP3_2136    0.417
12493 OH2 28.074 39.064 25.124 oh 2137 TIP3_2137   -0.834
12494 H1 28.583 38.436 24.640 ho 2137 TIP3_2137    0.417
12495 H2 27.322 38.500 25.448 ho 2137 TIP3_2137    0.417
12496 OH2 42.020 32.607 25.898 oh 2138 TIP3_2138   -0.834
12497 H1 41.990 33.445 25.344 ho 2138 TIP3_2138    0.417
12498 H2 41.917 31.919 25.237 ho 2138 TIP3_2138    0.417
12499 OH2 26.852 35.707 21.751 oh 2139 TIP3_2139   -0.834
12500 H1 27.632 35.115 21.853 ho 2139 TIP3_2139    0.417
12501 H2 26.575 35.985 22.656 ho 2139 TIP3_2139    0.417
12502 OH2 26.562 31.536 37.659 oh 2140 TIP3_2140   -0.834
12503 H1 25.960 32.250 37.468 ho 2140 TIP3_2140    0.417
12504 H2 26.197 30.827 36.973 ho 2140 TIP3_2140    0.417
12505 OH2 47.229 42.838 22.852 oh 2141 TIP3_2141   -0.834
12506 H1 47.757 43.593 22.435 ho 2141 TIP3_2141    0.417
12507 H2 46.303 43.010 22.571 ho 2141 TIP3_2141    0.417
12508 OH2 29.932 29.650 21.086 oh 2142 TIP3_2142   -0.834
12509 H1 30.597 30.241 20.708 ho 2142 TIP3_2142    0.417
12510 H2 29.387 30.196 21.650 ho 2142 TIP3_2142    0.417
12511 OH2 34.016 40.690 34.905 oh 2143 TIP3_2143   -0.834
12512 H1 34.158 39.769 35.120 ho 2143 TIP3_2143    0.417
12513 H2 33.537 40.554 34.072 ho 2143 TIP3_2143    0.417
12514 OH2 39.556 35.070 21.091 oh 2144 TIP3_2144   -0.834
12515 H1 39.095 35.399 21.857 ho 2144 TIP3_2144    0.417
12516 H2 39.246 34.181 20.978 ho 2144 TIP3_2144    0.417
12517 OH2 44.574 45.666 36.136 oh 2145 TIP3_2145   -0.834
12518 H1 45.069 44.902 36.453 ho 2145 TIP3_2145    0.417
12519 H2 43.827 45.684 36.747 ho 2145 TIP3_2145    0.417
12520 OH2 37.614 52.273 39.116 oh 2146 TIP3_2146   -0.834
12521 H1 38.124 52.950 38.727 ho 2146 TIP3_2146    0.417
12522 H2 37.068 52.765 39.713 ho 2146 TIP3_2146    0.417
12523 OH2 44.162 51.826 39.142 oh 2147 TIP3_2147   -0.834
12524 H1 45.048 51.911 38.839 ho 2147 TIP3_2147    0.417
12525 H2 44.172 51.129 39.774 ho 2147 TIP3_2147    0.417
12526 OH2 45.846 45.362 30.161 oh 2148 TIP3_2148   -0.834
12527 H1 45.810 45.846 31.064 ho 2148 TIP3_2148    0.417
12528 H2 45.840 44.389 30.355 ho 2148 TIP3_2148    0.417
12529 OH2 48.677 26.442 23.992 oh 2149 TIP3_2149   -0.834
12530 H1 47.746 26.317 23.837 ho 2149 TIP3_2149    0.417
12531 H2 48.778 27.335 23.727 ho 2149 TIP3_2149    0.417
12532 OH2 27.179 38.464 32.597 oh 2150 TIP3_2150   -0.834
12533 H1 27.719 39.061 33.157 ho 2150 TIP3_2150    0.417
12534 H2 26.640 38.021 33.262 ho 2150 TIP3_2150    0.417
12535 OH2 49.355 33.537 27.545 oh 2151 TIP3_2151   -0.834
12536 H1 49.816 33.963 26.843 ho 2151 TIP3_2151    0.417
12537 H2 49.086 32.636 27.247 ho 2151 TIP3_2151    0.417
12538 OH2 48.393 44.933 21.349 oh 2152 TIP3_2152   -0.834
12539 H1 49.370 44.940 21.296 ho 2152 TIP3_2152    0.417
12540 H2 48.019 45.013 20.444 ho 2152 TIP3_2152    0.417
12541 OH2 45.902 54.824 23.491 oh 2153 TIP3_2153   -0.834
12542 H1 45.138 54.947 24.024 ho 2153 TIP3_2153    0.417
12543 H2 45.998 53.864 23.489 ho 2153 TIP3_2153    0.417
12544 OH2 31.667 32.547 35.065 oh 2154 TIP3_2154   -0.834
12545 H1 31.103 31.975 35.715 ho 2154 TIP3_2154    0.417
12546 H2 32.558 32.292 35.465 ho 2154 TIP3_2154    0.417
12547 OH2 44.066 41.468 32.216 oh 2155 TIP3_2155   -0.834
12548 H1 43.300 41.930 32.608 ho 2155 TIP3_2155    0.417
12549 H2 43.744 41.292 31.302 ho 2155 TIP3_2155    0.417
12550 OH2 44.644 49.996 25.942 oh 2156 TIP3_2156   -0.834
12551 H1 44.757 50.535 26.785 ho 2156 TIP3_2156    0.417
12552 H2 45.557 49.741 25.709 ho 2156 TIP3_2156    0.417
12553 OH2 39.036 32.730 32.063 oh 2157 TIP3_2157   -0.834
12554 H1 39.358 32.138 32.766 ho 2157 TIP3_2157    0.417
12555 H2 38.886 33.589 32.543 ho 2157 TIP3_2157    0.417
12556 OH2 48.390 54.506 38.549 oh 2158 TIP3_2158   -0.834
12557 H1 49.282 54.326 38.132 ho 2158 TIP3_2158    0.417
12558 H2 47.986 55.210 38.029 ho 2158 TIP3_2158    0.417
12559 OH2 28.438 33.099 25.736 oh 2159 TIP3_2159   -0.834
12560 H1 27.547 32.847 25.997 ho 2159 TIP3_2159    0.417
12561 H2 28.889 32.775 26.512 ho 2159 TIP3_2159    0.417
12562 OH2 46.701 41.204 37.232 oh 2160 TIP3_2160   -0.834
12563 H1 46.240 40.278 37.098 ho 2160 TIP3_2160    0.417
12564 H2 47.146 40.993 38.021 ho 2160 TIP3_2160    0.417
12565 OH2 41.775 55.104 21.955 oh 2161 TIP3_2161   -0.834
12566 H1 42.015 55.678 22.734 ho 2161 TIP3_2161    0.417
12567 H2 42.351 55.438 21.300 ho 2161 TIP3_2161    0.417
12568 OH2 38.143 38.308 22.424 oh 2162 TIP3_2162   -0.834
12569 H1 38.870 39.038 22.313 ho 2162 TIP3_2162    0.417
12570 H2 37.740 38.275 21.521 ho 2162 TIP3_2162    0.417
12571 OH2 28.174 36.159 31.373 oh 2163 TIP3_2163   -0.834
12572 H1 28.904 36.073 30.772 ho 2163 TIP3_2163    0.417
12573 H2 28.204 37.104 31.549 ho 2163 TIP3_2163    0.417
12574 OH2 35.289 49.036 27.712 oh 2164 TIP3_2164   -0.834
12575 H1 35.347 49.942 27.438 ho 2164 TIP3_2164    0.417
12576 H2 36.189 48.864 27.975 ho 2164 TIP3_2164    0.417
12577 OH2 34.941 41.847 24.871 oh 2165 TIP3_2165   -0.834
12578 H1 35.623 42.493 24.845 ho 2165 TIP3_2165    0.417
12579 H2 34.944 41.555 25.849 ho 2165 TIP3_2165    0.417
12580 OH2 36.316 27.273 33.376 oh 2166 TIP3_2166   -0.834
12581 H1 36.391 26.358 33.571 ho 2166 TIP3_2166    0.417
12582 H2 35.423 27.479 33.601 ho 2166 TIP3_2166    0.417
12583 OH2 37.889 54.660 34.507 oh 2167 TIP3_2167   -0.834
12584 H1 37.578 54.796 35.395 ho 2167 TIP3_2167    0.417
12585 H2 38.764 54.337 34.632 ho 2167 TIP3_2167    0.417
12586 OH2 38.068 27.914 35.569 oh 2168 TIP3_2168   -0.834
12587 H1 37.803 27.473 34.715 ho 2168 TIP3_2168    0.417
12588 H2 39.010 27.849 35.532 ho 2168 TIP3_2168    0.417
12589 OH2 33.378 47.836 39.493 oh 2169 TIP3_2169   -0.834
12590 H1 34.127 48.085 38.897 ho 2169 TIP3_2169    0.417
12591 H2 32.806 48.652 39.532 ho 2169 TIP3_2169    0.417
12592 OH2 33.156 42.564 36.939 oh 2170 TIP3_2170   -0.834
12593 H1 33.355 43.345 36.340 ho 2170 TIP3_2170    0.417
12594 H2 33.334 41.820 36.294 ho 2170 TIP3_2170    0.417
12595 OH2 28.005 54.797 28.447 oh 2171 TIP3_2171   -0.834
12596 H1 27.830 53.988 28.915 ho 2171 TIP3_2171    0.417
12597 H2 28.779 55.190 28.833 ho 2171 TIP3_2171    0.417
12598 OH2 41.214 32.847 30.185 oh 2172 TIP3_2172   -0.834
12599 H1 40.254 32.992 30.580 ho 2172 TIP3_2172    0.417
12600 H2 40.905 32.392 29.415 ho 2172 TIP3_2172    0.417
12601 OH2 32.788 53.845 23.036 oh 2173 TIP3_2173   -0.834
12602 H1 32.294 53.606 22.216 ho 2173 TIP3_2173    0.417
12603 H2 33.556 53.264 23.114 ho 2173 TIP3_2173    0.417
12604 OH2 33.578 25.832 31.770 oh 2174 TIP3_2174   -0.834
12605 H1 32.928 25.530 31.113 ho 2174 TIP3_2174    0.417
12606 H2 33.563 26.801 31.754 ho 2174 TIP3_2174    0.417
12607 OH2 34.574 32.360 23.418 oh 2175 TIP3_2175   -0.834
12608 H1 35.432 32.775 23.280 ho 2175 TIP3_2175    0.417
12609 H2 34.071 32.768 22.663 ho 2175 TIP3_2175    0.417
12610 OH2 44.399 37.364 27.399 oh 2176 TIP3_2176   -0.834
12611 H1 44.715 36.499 27.017 ho 2176 TIP3_2176    0.417
12612 H2 44.091 37.059 28.266 ho 2176 TIP3_2176    0.417
12613 OH2 43.953 27.950 38.563 oh 2177 TIP3_2177   -0.834
12614 H1 43.909 28.386 39.438 ho 2177 TIP3_2177    0.417
12615 H2 44.636 27.340 38.761 ho 2177 TIP3_2177    0.417
12616 OH2 37.440 37.407 30.789 oh 2178 TIP3_2178   -0.834
12617 H1 36.652 36.887 30.524 ho 2178 TIP3_2178    0.417
12618 H2 37.893 36.867 31.397 ho 2178 TIP3_2178    0.417
12619 OH2 45.882 56.566 32.920 oh 2179 TIP3_2179   -0.834
12620 H1 46.771 56.259 32.784 ho 2179 TIP3_2179    0.417
12621 H2 46.048 57.516 32.810 ho 2179 TIP3_2179    0.417
12622 OH2 30.341 54.958 37.603 oh 2180 TIP3_2180   -0.834
12623 H1 29.511 54.806 37.153 ho 2180 TIP3_2180    0.417
12624 H2 30.757 55.640 37.035 ho 2180 TIP3_2180    0.417
12625 OH2 43.410 26.973 34.000 oh 2181 TIP3_2181   -0.834
12626 H1 43.658 27.915 33.942 ho 2181 TIP3_2181    0.417
12627 H2 43.788 26.567 33.170 ho 2181 TIP3_2181    0.417
12628 OH2 31.901 46.557 34.745 oh 2182 TIP3_2182   -0.834
12629 H1 32.410 45.744 34.803 ho 2182 TIP3_2182    0.417
12630 H2 32.474 47.077 34.178 ho 2182 TIP3_2182    0.417
12631 OH2 25.823 48.668 28.308 oh 2183 TIP3_2183   -0.834
12632 H1 26.636 48.316 28.760 ho 2183 TIP3_2183    0.417
12633 H2 25.253 48.978 29.059 ho 2183 TIP3_2183    0.417
12634 OH2 27.565 44.802 23.263 oh 2184 TIP3_2184   -0.834
12635 H1 27.312 43.973 23.672 ho 2184 TIP3_2184    0.417
12636 H2 28.433 44.517 22.886 ho 2184 TIP3_2184    0.417
12637 OH2 29.620 47.335 32.549 oh 2185 TIP3_2185   -0.834
12638 H1 28.754 47.591 33.009 ho 2185 TIP3_2185    0.417
12639 H2 30.178 47.349 33.326 ho 2185 TIP3_2185    0.417
12640 OH2 33.457 56.011 26.280 oh 2186 TIP3_2186   -0.834
12641 H1 33.244 56.664 26.934 ho 2186 TIP3_2186    0.417
12642 H2 32.809 55.305 26.487 ho 2186 TIP3_2186    0.417
12643 OH2 45.577 49.955 21.767 oh 2187 TIP3_2187   -0.834
12644 H1 46.390 50.222 21.241 ho 2187 TIP3_2187    0.417
12645 H2 45.028 50.766 21.645 ho 2187 TIP3_2187    0.417
12646 OH2 35.282 25.640 27.473 oh 2188 TIP3_2188   -0.834
12647 H1 35.367 25.959 28.435 ho 2188 TIP3_2188    0.417
12648 H2 34.743 26.323 27.087 ho 2188 TIP3_2188    0.417
12649 OH2 27.184 47.110 34.920 oh 2189 TIP3_2189   -0.834
12650 H1 26.913 46.297 35.418 ho 2189 TIP3_2189    0.417
12651 H2 26.389 47.233 34.383 ho 2189 TIP3_2189    0.417
12652 OH2 47.274 39.605 23.107 oh 2190 TIP3_2190   -0.834
12653 H1 47.067 38.960 23.858 ho 2190 TIP3_2190    0.417
12654 H2 46.669 40.336 23.267 ho 2190 TIP3_2190    0.417
12655 OH2 37.793 38.364 37.588 oh 2191 TIP3_2191   -0.834
12656 H1 37.787 38.548 36.643 ho 2191 TIP3_2191    0.417
12657 H2 36.995 38.794 37.819 ho 2191 TIP3_2191    0.417
12658 OH2 48.418 52.184 33.483 oh 2192 TIP3_2192   -0.834
12659 H1 48.266 51.649 34.296 ho 2192 TIP3_2192    0.417
12660 H2 48.361 51.508 32.773 ho 2192 TIP3_2192    0.417
12661 OH2 44.951 31.433 29.726 oh 2193 TIP3_2193   -0.834
12662 H1 44.596 32.402 29.878 ho 2193 TIP3_2193    0.417
12663 H2 44.554 30.931 30.448 ho 2193 TIP3_2193    0.417
12664 OH2 37.035 30.439 23.947 oh 2194 TIP3_2194   -0.834
12665 H1 36.518 30.662 23.193 ho 2194 TIP3_2194    0.417
12666 H2 36.341 30.166 24.597 ho 2194 TIP3_2194    0.417
12667 OH2 41.570 38.123 27.376 oh 2195 TIP3_2195   -0.834
12668 H1 42.480 38.021 26.968 ho 2195 TIP3_2195    0.417
12669 H2 41.282 39.096 27.081 ho 2195 TIP3_2195    0.417
12670 OH2 43.637 33.990 30.036 oh 2196 TIP3_2196   -0.834
12671 H1 42.786 33.621 29.933 ho 2196 TIP3_2196    0.417
12672 H2 43.594 34.933 30.045 ho 2196 TIP3_2196    0.417
12673 OH2 49.169 56.178 32.512 oh 2197 TIP3_2197   -0.834
12674 H1 49.122 56.962 31.895 ho 2197 TIP3_2197    0.417
12675 H2 48.761 55.528 31.900 ho 2197 TIP3_2197    0.417
12676 OH2 29.289 50.675 26.894 oh 2198 TIP3_2198   -0.834
12677 H1 30.014 50.297 27.329 ho 2198 TIP3_2198    0.417
12678 H2 28.628 50.027 26.933 ho 2198 TIP3_2198    0.417
12679 OH2 41.192 47.403 29.202 oh 2199 TIP3_2199   -0.834
12680 H1 41.363 47.881 30.042 ho 2199 TIP3_2199    0.417
12681 H2 41.427 48.065 28.505 ho 2199 TIP3_2199    0.417
12682 OH2 32.572 25.420 28.898 oh 2200 TIP3_2200   -0.834
12683 H1 32.636 25.339 27.922 ho 2200 TIP3_2200    0.417
12684 H2 31.628 25.234 28.949 ho 2200 TIP3_2200    0.417
12685 OH2 25.802 50.084 30.942 oh 2201 TIP3_2201   -0.834
12686 H1 25.579 51.065 30.925 ho 2201 TIP3_2201    0.417
12687 H2 26.795 50.163 30.865 ho 2201 TIP3_2201    0.417
12688 OH2 45.914 43.288 34.647 oh 2202 TIP3_2202   -0.834
12689 H1 46.719 43.468 35.239 ho 2202 TIP3_2202    0.417
12690 H2 46.059 43.875 33.936 ho 2202 TIP3_2202    0.417
12691 OH2 48.688 48.202 29.523 oh 2203 TIP3_2203   -0.834
12692 H1 48.403 47.394 28.970 ho 2203 TIP3_2203    0.417
12693 H2 48.793 48.867 28.799 ho 2203 TIP3_2203    0.417
12694 OH2 25.289 35.538 38.888 oh 2204 TIP3_2204   -0.834
12695 H1 25.286 35.937 38.021 ho 2204 TIP3_2204    0.417
12696 H2 26.262 35.357 39.089 ho 2204 TIP3_2204    0.417
12697 OH2 27.246 45.883 30.414 oh 2205 TIP3_2205   -0.834
12698 H1 26.611 45.097 30.305 ho 2205 TIP3_2205    0.417
12699 H2 28.079 45.473 30.615 ho 2205 TIP3_2205    0.417
12700 OH2 30.178 29.483 25.310 oh 2206 TIP3_2206   -0.834
12701 H1 30.063 28.514 25.477 ho 2206 TIP3_2206    0.417
12702 H2 29.343 29.682 24.932 ho 2206 TIP3_2206    0.417
12703 OH2 27.710 31.185 32.960 oh 2207 TIP3_2207   -0.834
12704 H1 27.467 31.236 31.981 ho 2207 TIP3_2207    0.417
12705 H2 28.410 31.855 33.000 ho 2207 TIP3_2207    0.417
12706 OH2 44.819 26.185 31.841 oh 2208 TIP3_2208   -0.834
12707 H1 45.354 26.643 31.171 ho 2208 TIP3_2208    0.417
12708 H2 44.767 25.232 31.518 ho 2208 TIP3_2208    0.417
12709 OH2 25.565 54.252 27.003 oh 2209 TIP3_2209   -0.834
12710 H1 26.463 54.562 27.156 ho 2209 TIP3_2209    0.417
12711 H2 25.586 53.335 27.207 ho 2209 TIP3_2209    0.417
12712 OH2 34.263 53.274 37.842 oh 2210 TIP3_2210   -0.834
12713 H1 33.946 53.886 38.467 ho 2210 TIP3_2210    0.417
12714 H2 33.797 53.532 37.005 ho 2210 TIP3_2210    0.417
12715 OH2 26.307 50.327 35.552 oh 2211 TIP3_2211   -0.834
12716 H1 27.252 50.463 35.496 ho 2211 TIP3_2211    0.417
12717 H2 26.122 49.555 34.892 ho 2211 TIP3_2211    0.417
12718 OH2 28.259 54.755 35.897 oh 2212 TIP3_2212   -0.834
12719 H1 28.377 55.314 35.143 ho 2212 TIP3_2212    0.417
12720 H2 27.498 54.224 35.562 ho 2212 TIP3_2212    0.417
12721 OH2 38.410 38.796 28.626 oh 2213 TIP3_2213   -0.834
12722 H1 37.860 38.342 29.372 ho 2213 TIP3_2213    0.417
12723 H2 39.378 38.624 28.906 ho 2213 TIP3_2213    0.417
12724 OH2 45.597 39.632 26.482 oh 2214 TIP3_2214   -0.834
12725 H1 46.521 39.797 26.834 ho 2214 TIP3_2214    0.417
12726 H2 45.147 39.090 27.140 ho 2214 TIP3_2214    0.417
12727 OH2 28.628 40.453 35.104 oh 2215 TIP3_2215   -0.834
12728 H1 28.604 41.368 34.785 ho 2215 TIP3_2215    0.417
12729 H2 28.266 40.478 36.011 ho 2215 TIP3_2215    0.417
12730 OH2 45.584 54.083 34.677 oh 2216 TIP3_2216   -0.834
12731 H1 45.206 54.670 35.424 ho 2216 TIP3_2216    0.417
12732 H2 46.495 54.378 34.515 ho 2216 TIP3_2216    0.417
12733 OH2 33.900 32.310 36.710 oh 2217 TIP3_2217   -0.834
12734 H1 33.739 31.706 37.497 ho 2217 TIP3_2217    0.417
12735 H2 34.555 33.003 36.951 ho 2217 TIP3_2217    0.417
12736 OH2 49.227 41.498 39.069 oh 2218 TIP3_2218   -0.834
12737 H1 49.060 40.791 39.635 ho 2218 TIP3_2218    0.417
12738 H2 49.818 41.147 38.398 ho 2218 TIP3_2218    0.417
12739 OH2 43.338 35.970 35.538 oh 2219 TIP3_2219   -0.834
12740 H1 44.088 35.563 35.951 ho 2219 TIP3_2219    0.417
12741 H2 43.311 35.591 34.636 ho 2219 TIP3_2219    0.417
12742 OH2 28.018 50.784 23.691 oh 2220 TIP3_2220   -0.834
12743 H1 27.090 51.122 23.751 ho 2220 TIP3_2220    0.417
12744 H2 28.480 51.539 23.908 ho 2220 TIP3_2220    0.417
12745 OH2 36.177 34.610 33.348 oh 2221 TIP3_2221   -0.834
12746 H1 35.443 35.172 33.473 ho 2221 TIP3_2221    0.417
12747 H2 35.866 33.788 33.717 ho 2221 TIP3_2221    0.417
12748 OH2 40.027 36.249 35.226 oh 2222 TIP3_2222   -0.834
12749 H1 40.636 35.953 34.523 ho 2222 TIP3_2222    0.417
12750 H2 39.929 37.194 34.965 ho 2222 TIP3_2222    0.417
12751 OH2 33.181 48.465 33.057 oh 2223 TIP3_2223   -0.834
12752 H1 34.007 48.937 33.122 ho 2223 TIP3_2223    0.417
12753 H2 32.517 49.117 32.731 ho 2223 TIP3_2223    0.417
12754 OH2 29.299 42.774 32.589 oh 2224 TIP3_2224   -0.834
12755 H1 28.303 42.803 32.742 ho 2224 TIP3_2224    0.417
12756 H2 29.533 43.755 32.343 ho 2224 TIP3_2224    0.417
12757 OH2 46.606 35.299 34.784 oh 2225 TIP3_2225   -0.834
12758 H1 47.239 34.620 34.949 ho 2225 TIP3_2225    0.417
12759 H2 45.962 35.222 35.519 ho 2225 TIP3_2225    0.417
12760 OH2 37.414 34.004 39.328 oh 2226 TIP3_2226   -0.834
12761 H1 36.523 33.931 39.604 ho 2226 TIP3_2226    0.417
12762 H2 37.375 34.766 38.705 ho 2226 TIP3_2226    0.417
12763 OH2 18.536 6.677 -24.842 oh 2227 TIP3_2227   -0.834
12764 H1 19.171 7.353 -24.471 ho 2227 TIP3_2227    0.417
12765 H2 17.906 6.561 -24.085 ho 2227 TIP3_2227    0.417
12766 OH2 8.812 4.049 -28.862 oh 2228 TIP3_2228   -0.834
12767 H1 8.368 3.234 -29.056 ho 2228 TIP3_2228    0.417
12768 H2 9.731 3.861 -29.092 ho 2228 TIP3_2228    0.417
12769 OH2 19.757 -0.359 -23.942 oh 2229 TIP3_2229   -0.834
12770 H1 19.521 0.601 -23.938 ho 2229 TIP3_2229    0.417
12771 H2 20.582 -0.239 -23.511 ho 2229 TIP3_2229    0.417
12772 OH2 0.347 18.388 -27.030 oh 2230 TIP3_2230   -0.834
12773 H1 0.748 17.482 -27.049 ho 2230 TIP3_2230    0.417
12774 H2 -0.561 18.130 -27.111 ho 2230 TIP3_2230    0.417
12775 OH2 16.693 1.664 -36.293 oh 2231 TIP3_2231   -0.834
12776 H1 15.850 1.311 -36.698 ho 2231 TIP3_2231    0.417
12777 H2 17.330 1.065 -36.790 ho 2231 TIP3_2231    0.417
12778 OH2 6.408 2.285 -30.340 oh 2232 TIP3_2232   -0.834
12779 H1 6.908 1.745 -29.809 ho 2232 TIP3_2232    0.417
12780 H2 5.631 2.638 -29.829 ho 2232 TIP3_2232    0.417
12781 OH2 3.419 10.932 -23.784 oh 2233 TIP3_2233   -0.834
12782 H1 4.084 11.176 -24.443 ho 2233 TIP3_2233    0.417
12783 H2 2.622 11.176 -24.151 ho 2233 TIP3_2233    0.417
12784 OH2 7.713 1.595 -37.591 oh 2234 TIP3_2234   -0.834
12785 H1 8.443 1.598 -38.204 ho 2234 TIP3_2234    0.417
12786 H2 7.159 0.868 -37.831 ho 2234 TIP3_2234    0.417
12787 OH2 13.156 23.617 -28.602 oh 2235 TIP3_2235   -0.834
12788 H1 12.440 23.281 -29.163 ho 2235 TIP3_2235    0.417
12789 H2 13.981 23.495 -29.106 ho 2235 TIP3_2235    0.417
12790 OH2 19.571 16.252 -22.748 oh 2236 TIP3_2236   -0.834
12791 H1 18.952 16.613 -22.132 ho 2236 TIP3_2236    0.417
12792 H2 20.360 16.088 -22.205 ho 2236 TIP3_2236    0.417
12793 OH2 12.263 22.542 -37.781 oh 2237 TIP3_2237   -0.834
12794 H1 11.529 21.981 -38.141 ho 2237 TIP3_2237    0.417
12795 H2 11.836 23.384 -37.490 ho 2237 TIP3_2237    0.417
12796 OH2 4.449 7.516 -38.554 oh 2238 TIP3_2238   -0.834
12797 H1 3.981 6.946 -37.918 ho 2238 TIP3_2238    0.417
12798 H2 4.079 7.287 -39.363 ho 2238 TIP3_2238    0.417
12799 OH2 14.036 9.614 -37.999 oh 2239 TIP3_2239   -0.834
12800 H1 14.729 8.928 -38.017 ho 2239 TIP3_2239    0.417
12801 H2 14.474 10.397 -37.626 ho 2239 TIP3_2239    0.417
12802 OH2 23.835 13.971 -34.269 oh 2240 TIP3_2240   -0.834
12803 H1 24.315 14.786 -34.045 ho 2240 TIP3_2240    0.417
12804 H2 23.465 13.707 -33.457 ho 2240 TIP3_2240    0.417
12805 OH2 0.926 4.198 -23.389 oh 2241 TIP3_2241   -0.834
12806 H1 0.471 3.950 -22.552 ho 2241 TIP3_2241    0.417
12807 H2 1.067 3.349 -23.828 ho 2241 TIP3_2241    0.417
12808 OH2 11.690 16.379 -24.130 oh 2242 TIP3_2242   -0.834
12809 H1 12.636 16.541 -24.347 ho 2242 TIP3_2242    0.417
12810 H2 11.463 15.540 -24.607 ho 2242 TIP3_2242    0.417
12811 OH2 6.210 7.340 -29.099 oh 2243 TIP3_2243   -0.834
12812 H1 6.732 6.533 -29.460 ho 2243 TIP3_2243    0.417
12813 H2 6.181 7.865 -29.901 ho 2243 TIP3_2243    0.417
12814 OH2 24.220 16.288 -24.816 oh 2244 TIP3_2244   -0.834
12815 H1 23.534 16.826 -25.311 ho 2244 TIP3_2244    0.417
12816 H2 24.051 15.391 -25.151 ho 2244 TIP3_2244    0.417
12817 OH2 22.237 22.607 -35.061 oh 2245 TIP3_2245   -0.834
12818 H1 22.831 21.868 -34.877 ho 2245 TIP3_2245    0.417
12819 H2 22.126 23.017 -34.222 ho 2245 TIP3_2245    0.417
12820 OH2 23.019 13.731 -24.641 oh 2246 TIP3_2246   -0.834
12821 H1 22.167 13.671 -25.143 ho 2246 TIP3_2246    0.417
12822 H2 23.056 12.760 -24.248 ho 2246 TIP3_2246    0.417
12823 OH2 5.201 3.396 -25.748 oh 2247 TIP3_2247   -0.834
12824 H1 4.790 4.206 -25.358 ho 2247 TIP3_2247    0.417
12825 H2 5.307 2.838 -24.965 ho 2247 TIP3_2247    0.417
12826 OH2 14.207 17.100 -24.535 oh 2248 TIP3_2248   -0.834
12827 H1 14.104 18.001 -24.778 ho 2248 TIP3_2248    0.417
12828 H2 14.697 16.705 -25.283 ho 2248 TIP3_2248    0.417
12829 OH2 4.137 14.749 -34.340 oh 2249 TIP3_2249   -0.834
12830 H1 4.763 14.811 -35.016 ho 2249 TIP3_2249    0.417
12831 H2 3.836 15.624 -34.275 ho 2249 TIP3_2249    0.417
12832 OH2 9.936 12.763 -31.514 oh 2250 TIP3_2250   -0.834
12833 H1 9.177 12.204 -31.674 ho 2250 TIP3_2250    0.417
12834 H2 10.428 12.293 -30.802 ho 2250 TIP3_2250    0.417
12835 OH2 9.969 11.609 -39.485 oh 2251 TIP3_2251   -0.834
12836 H1 9.822 12.562 -39.310 ho 2251 TIP3_2251    0.417
12837 H2 9.532 11.181 -38.769 ho 2251 TIP3_2251    0.417
12838 OH2 15.238 19.509 -27.637 oh 2252 TIP3_2252   -0.834
12839 H1 15.025 19.862 -28.572 ho 2252 TIP3_2252    0.417
12840 H2 15.792 20.246 -27.253 ho 2252 TIP3_2252    0.417
12841 OH2 15.528 12.570 -23.409 oh 2253 TIP3_2253   -0.834
12842 H1 15.189 11.680 -23.105 ho 2253 TIP3_2253    0.417
12843 H2 16.297 12.293 -23.907 ho 2253 TIP3_2253    0.417
12844 OH2 2.829 23.628 -26.740 oh 2254 TIP3_2254   -0.834
12845 H1 3.621 23.208 -26.282 ho 2254 TIP3_2254    0.417
12846 H2 2.635 23.035 -27.450 ho 2254 TIP3_2254    0.417
12847 OH2 17.112 8.708 -39.574 oh 2255 TIP3_2255   -0.834
12848 H1 16.846 8.341 -38.694 ho 2255 TIP3_2255    0.417
12849 H2 17.980 8.264 -39.780 ho 2255 TIP3_2255    0.417
12850 OH2 15.496 3.118 -34.397 oh 2256 TIP3_2256   -0.834
12851 H1 15.856 2.526 -35.118 ho 2256 TIP3_2256    0.417
12852 H2 16.304 3.314 -33.852 ho 2256 TIP3_2256    0.417
12853 OH2 -0.057 14.812 -36.720 oh 2257 TIP3_2257   -0.834
12854 H1 -0.160 13.876 -36.851 ho 2257 TIP3_2257    0.417
12855 H2 0.901 14.929 -36.832 ho 2257 TIP3_2257    0.417
12856 OH2 0.461 12.158 -24.472 oh 2258 TIP3_2258   -0.834
12857 H1 -0.057 11.639 -25.094 ho 2258 TIP3_2258    0.417
12858 H2 -0.124 12.217 -23.746 ho 2258 TIP3_2258    0.417
12859 OH2 17.217 9.711 -34.711 oh 2259 TIP3_2259   -0.834
12860 H1 18.001 10.218 -34.263 ho 2259 TIP3_2259    0.417
12861 H2 17.134 8.889 -34.258 ho 2259 TIP3_2259    0.417
12862 OH2 12.274 11.637 -33.285 oh 2260 TIP3_2260   -0.834
12863 H1 11.350 12.009 -33.199 ho 2260 TIP3_2260    0.417
12864 H2 12.787 12.175 -32.693 ho 2260 TIP3_2260    0.417
12865 OH2 7.086 11.644 -28.961 oh 2261 TIP3_2261   -0.834
12866 H1 6.700 10.888 -28.421 ho 2261 TIP3_2261    0.417
12867 H2 6.393 11.767 -29.661 ho 2261 TIP3_2261    0.417
12868 OH2 21.452 9.980 -34.237 oh 2262 TIP3_2262   -0.834
12869 H1 22.102 9.821 -34.976 ho 2262 TIP3_2262    0.417
12870 H2 21.985 9.750 -33.467 ho 2262 TIP3_2262    0.417
12871 OH2 22.085 17.765 -26.246 oh 2263 TIP3_2263   -0.834
12872 H1 21.295 17.227 -25.935 ho 2263 TIP3_2263    0.417
12873 H2 21.708 18.617 -26.328 ho 2263 TIP3_2263    0.417
12874 OH2 20.271 11.311 -22.594 oh 2264 TIP3_2264   -0.834
12875 H1 19.896 12.204 -22.865 ho 2264 TIP3_2264    0.417
12876 H2 19.512 10.888 -22.144 ho 2264 TIP3_2264    0.417
12877 OH2 10.922 3.590 -35.299 oh 2265 TIP3_2265   -0.834
12878 H1 10.174 3.530 -35.914 ho 2265 TIP3_2265    0.417
12879 H2 11.526 4.316 -35.654 ho 2265 TIP3_2265    0.417
12880 OH2 22.262 6.754 -30.030 oh 2266 TIP3_2266   -0.834
12881 H1 22.651 6.562 -29.179 ho 2266 TIP3_2266    0.417
12882 H2 22.228 5.938 -30.416 ho 2266 TIP3_2266    0.417
12883 OH2 19.170 11.274 -33.389 oh 2267 TIP3_2267   -0.834
12884 H1 20.072 11.104 -33.667 ho 2267 TIP3_2267    0.417
12885 H2 19.274 11.783 -32.598 ho 2267 TIP3_2267    0.417
12886 OH2 0.540 5.998 -36.668 oh 2268 TIP3_2268   -0.834
12887 H1 0.672 6.950 -36.477 ho 2268 TIP3_2268    0.417
12888 H2 1.411 5.658 -36.461 ho 2268 TIP3_2268    0.417
12889 OH2 3.903 7.212 -21.010 oh 2269 TIP3_2269   -0.834
12890 H1 3.815 6.966 -21.916 ho 2269 TIP3_2269    0.417
12891 H2 3.006 7.124 -20.704 ho 2269 TIP3_2269    0.417
12892 OH2 8.176 22.662 -32.269 oh 2270 TIP3_2270   -0.834
12893 H1 8.297 21.759 -32.664 ho 2270 TIP3_2270    0.417
12894 H2 8.051 22.485 -31.308 ho 2270 TIP3_2270    0.417
12895 OH2 21.704 5.815 -38.028 oh 2271 TIP3_2271   -0.834
12896 H1 22.303 6.464 -38.318 ho 2271 TIP3_2271    0.417
12897 H2 21.326 5.524 -38.870 ho 2271 TIP3_2271    0.417
12898 OH2 3.603 0.046 -31.244 oh 2272 TIP3_2272   -0.834
12899 H1 3.196 0.721 -30.650 ho 2272 TIP3_2272    0.417
12900 H2 3.345 0.319 -32.104 ho 2272 TIP3_2272    0.417
12901 OH2 13.205 17.214 -33.259 oh 2273 TIP3_2273   -0.834
12902 H1 13.121 18.046 -32.790 ho 2273 TIP3_2273    0.417
12903 H2 13.395 17.460 -34.200 ho 2273 TIP3_2273    0.417
12904 OH2 22.110 18.427 -38.972 oh 2274 TIP3_2274   -0.834
12905 H1 22.965 18.714 -38.482 ho 2274 TIP3_2274    0.417
12906 H2 21.919 17.561 -38.584 ho 2274 TIP3_2274    0.417
12907 OH2 9.627 14.477 -38.971 oh 2275 TIP3_2275   -0.834
12908 H1 10.534 14.676 -38.599 ho 2275 TIP3_2275    0.417
12909 H2 9.656 14.858 -39.872 ho 2275 TIP3_2275    0.417
12910 OH2 2.499 19.384 -29.153 oh 2276 TIP3_2276   -0.834
12911 H1 2.168 18.922 -28.376 ho 2276 TIP3_2276    0.417
12912 H2 2.719 20.219 -28.807 ho 2276 TIP3_2276    0.417
12913 OH2 11.051 6.403 -23.424 oh 2277 TIP3_2277   -0.834
12914 H1 11.273 6.416 -24.349 ho 2277 TIP3_2277    0.417
12915 H2 11.095 5.464 -23.224 ho 2277 TIP3_2277    0.417
12916 OH2 24.119 14.328 -22.171 oh 2278 TIP3_2278   -0.834
12917 H1 24.011 14.491 -23.137 ho 2278 TIP3_2278    0.417
12918 H2 23.624 15.053 -21.831 ho 2278 TIP3_2278    0.417
12919 OH2 7.937 14.219 -29.628 oh 2279 TIP3_2279   -0.834
12920 H1 7.903 13.243 -29.731 ho 2279 TIP3_2279    0.417
12921 H2 8.607 14.380 -28.943 ho 2279 TIP3_2279    0.417
12922 OH2 8.724 1.470 -28.627 oh 2280 TIP3_2280   -0.834
12923 H1 8.880 0.569 -28.976 ho 2280 TIP3_2280    0.417
12924 H2 8.190 1.279 -27.832 ho 2280 TIP3_2280    0.417
12925 OH2 20.504 8.805 -29.981 oh 2281 TIP3_2281   -0.834
12926 H1 21.222 8.206 -29.651 ho 2281 TIP3_2281    0.417
12927 H2 19.756 8.496 -29.484 ho 2281 TIP3_2281    0.417
12928 OH2 17.834 13.641 -34.629 oh 2282 TIP3_2282   -0.834
12929 H1 17.101 13.826 -33.940 ho 2282 TIP3_2282    0.417
12930 H2 18.320 12.873 -34.252 ho 2282 TIP3_2282    0.417
12931 OH2 1.337 16.042 -27.945 oh 2283 TIP3_2283   -0.834
12932 H1 1.070 15.145 -27.654 ho 2283 TIP3_2283    0.417
12933 H2 0.681 16.294 -28.662 ho 2283 TIP3_2283    0.417
12934 OH2 7.972 8.480 -27.140 oh 2284 TIP3_2284   -0.834
12935 H1 7.983 7.627 -26.655 ho 2284 TIP3_2284    0.417
12936 H2 7.533 8.298 -27.993 ho 2284 TIP3_2284    0.417
12937 OH2 8.250 7.565 -32.865 oh 2285 TIP3_2285   -0.834
12938 H1 8.340 6.623 -32.647 ho 2285 TIP3_2285    0.417
12939 H2 7.707 7.922 -32.188 ho 2285 TIP3_2285    0.417
12940 OH2 3.346 8.096 -23.718 oh 2286 TIP3_2286   -0.834
12941 H1 3.406 9.067 -23.550 ho 2286 TIP3_2286    0.417
12942 H2 2.374 7.973 -23.851 ho 2286 TIP3_2286    0.417
12943 OH2 19.408 17.118 -25.387 oh 2287 TIP3_2287   -0.834
12944 H1 18.947 17.903 -24.985 ho 2287 TIP3_2287    0.417
12945 H2 19.585 16.573 -24.611 ho 2287 TIP3_2287    0.417
12946 OH2 5.131 16.977 -27.907 oh 2288 TIP3_2288   -0.834
12947 H1 5.894 17.420 -27.464 ho 2288 TIP3_2288    0.417
12948 H2 5.411 16.861 -28.793 ho 2288 TIP3_2288    0.417
12949 OH2 7.941 22.385 -29.486 oh 2289 TIP3_2289   -0.834
12950 H1 6.967 22.558 -29.424 ho 2289 TIP3_2289    0.417
12951 H2 8.084 21.909 -28.668 ho 2289 TIP3_2289    0.417
12952 OH2 5.912 19.795 -36.978 oh 2290 TIP3_2290   -0.834
12953 H1 6.038 19.925 -37.889 ho 2290 TIP3_2290    0.417
12954 H2 6.312 20.581 -36.628 ho 2290 TIP3_2290    0.417
12955 OH2 18.871 4.531 -28.789 oh 2291 TIP3_2291   -0.834
12956 H1 19.332 4.453 -27.905 ho 2291 TIP3_2291    0.417
12957 H2 18.176 3.785 -28.658 ho 2291 TIP3_2291    0.417
12958 OH2 3.675 8.919 -30.250 oh 2292 TIP3_2292   -0.834
12959 H1 3.333 7.994 -30.233 ho 2292 TIP3_2292    0.417
12960 H2 3.157 9.335 -29.591 ho 2292 TIP3_2292    0.417
12961 OH2 6.054 15.685 -36.006 oh 2293 TIP3_2293   -0.834
12962 H1 6.139 16.266 -35.235 ho 2293 TIP3_2293    0.417
12963 H2 6.249 16.252 -36.766 ho 2293 TIP3_2293    0.417
12964 OH2 24.097 20.164 -27.551 oh 2294 TIP3_2294   -0.834
12965 H1 23.148 19.990 -27.780 ho 2294 TIP3_2294    0.417
12966 H2 24.174 19.920 -26.601 ho 2294 TIP3_2294    0.417
12967 OH2 5.575 11.188 -25.603 oh 2295 TIP3_2295   -0.834
12968 H1 5.493 10.571 -26.392 ho 2295 TIP3_2295    0.417
12969 H2 5.725 12.080 -26.020 ho 2295 TIP3_2295    0.417
12970 OH2 22.445 17.583 -35.425 oh 2296 TIP3_2296   -0.834
12971 H1 22.813 18.215 -34.803 ho 2296 TIP3_2296    0.417
12972 H2 23.029 17.605 -36.182 ho 2296 TIP3_2296    0.417
12973 OH2 3.780 1.524 -37.444 oh 2297 TIP3_2297   -0.834
12974 H1 4.484 2.192 -37.481 ho 2297 TIP3_2297    0.417
12975 H2 3.952 1.125 -36.582 ho 2297 TIP3_2297    0.417
12976 OH2 5.981 19.741 -30.038 oh 2298 TIP3_2298   -0.834
12977 H1 5.047 19.760 -30.227 ho 2298 TIP3_2298    0.417
12978 H2 6.309 18.986 -30.545 ho 2298 TIP3_2298    0.417
12979 OH2 15.999 7.993 -37.097 oh 2299 TIP3_2299   -0.834
12980 H1 15.811 7.182 -36.687 ho 2299 TIP3_2299    0.417
12981 H2 16.099 8.590 -36.365 ho 2299 TIP3_2299    0.417
12982 OH2 21.313 8.913 -26.527 oh 2300 TIP3_2300   -0.834
12983 H1 22.105 9.215 -27.044 ho 2300 TIP3_2300    0.417
12984 H2 20.754 8.305 -27.074 ho 2300 TIP3_2300    0.417
12985 OH2 -0.294 20.252 -24.395 oh 2301 TIP3_2301   -0.834
12986 H1 0.225 19.452 -24.252 ho 2301 TIP3_2301    0.417
12987 H2 0.326 20.994 -24.216 ho 2301 TIP3_2301    0.417
12988 OH2 12.415 3.449 -20.750 oh 2302 TIP3_2302   -0.834
12989 H1 11.432 3.260 -20.793 ho 2302 TIP3_2302    0.417
12990 H2 12.695 3.409 -21.641 ho 2302 TIP3_2302    0.417
12991 OH2 14.291 9.450 -33.157 oh 2303 TIP3_2303   -0.834
12992 H1 13.552 9.975 -33.364 ho 2303 TIP3_2303    0.417
12993 H2 13.950 8.553 -33.314 ho 2303 TIP3_2303    0.417
12994 OH2 5.302 9.690 -27.785 oh 2304 TIP3_2304   -0.834
12995 H1 5.568 8.747 -27.852 ho 2304 TIP3_2304    0.417
12996 H2 4.350 9.665 -28.018 ho 2304 TIP3_2304    0.417
12997 OH2 19.699 8.713 -38.235 oh 2305 TIP3_2305   -0.834
12998 H1 19.313 9.559 -37.940 ho 2305 TIP3_2305    0.417
12999 H2 20.642 8.901 -38.360 ho 2305 TIP3_2305    0.417
13000 OH2 9.212 3.724 -25.348 oh 2306 TIP3_2306   -0.834
13001 H1 10.073 3.458 -25.841 ho 2306 TIP3_2306    0.417
13002 H2 8.910 4.428 -25.910 ho 2306 TIP3_2306    0.417
13003 OH2 21.749 1.837 -25.802 oh 2307 TIP3_2307   -0.834
13004 H1 20.874 2.095 -26.142 ho 2307 TIP3_2307    0.417
13005 H2 22.348 2.146 -26.540 ho 2307 TIP3_2307    0.417
13006 OH2 4.835 10.598 -33.639 oh 2308 TIP3_2308   -0.834
13007 H1 4.391 11.405 -33.887 ho 2308 TIP3_2308    0.417
13008 H2 4.216 9.860 -33.933 ho 2308 TIP3_2308    0.417
13009 OH2 10.828 0.902 -23.040 oh 2309 TIP3_2309   -0.834
13010 H1 11.702 0.575 -22.835 ho 2309 TIP3_2309    0.417
13011 H2 10.627 0.529 -23.991 ho 2309 TIP3_2309    0.417
13012 OH2 9.858 10.098 -34.371 oh 2310 TIP3_2310   -0.834
13013 H1 9.077 10.462 -34.005 ho 2310 TIP3_2310    0.417
13014 H2 10.510 10.851 -34.611 ho 2310 TIP3_2310    0.417
13015 OH2 3.097 24.369 -22.803 oh 2311 TIP3_2311   -0.834
13016 H1 4.060 24.492 -22.808 ho 2311 TIP3_2311    0.417
13017 H2 2.849 24.800 -23.644 ho 2311 TIP3_2311    0.417
13018 OH2 2.895 22.526 -29.608 oh 2312 TIP3_2312   -0.834
13019 H1 3.580 22.043 -30.029 ho 2312 TIP3_2312    0.417
13020 H2 2.193 22.592 -30.329 ho 2312 TIP3_2312    0.417
13021 OH2 19.163 2.934 -35.245 oh 2313 TIP3_2313   -0.834
13022 H1 18.497 2.575 -35.924 ho 2313 TIP3_2313    0.417
13023 H2 19.067 3.927 -35.236 ho 2313 TIP3_2313    0.417
13024 OH2 0.803 17.232 -38.802 oh 2314 TIP3_2314   -0.834
13025 H1 1.520 17.698 -38.313 ho 2314 TIP3_2314    0.417
13026 H2 0.050 17.486 -38.270 ho 2314 TIP3_2314    0.417
13027 OH2 17.161 1.152 -30.912 oh 2315 TIP3_2315   -0.834
13028 H1 16.140 1.312 -30.896 ho 2315 TIP3_2315    0.417
13029 H2 17.510 1.708 -31.639 ho 2315 TIP3_2315    0.417
13030 OH2 21.493 13.535 -32.546 oh 2316 TIP3_2316   -0.834
13031 H1 21.366 12.787 -31.938 ho 2316 TIP3_2316    0.417
13032 H2 20.718 14.070 -32.356 ho 2316 TIP3_2316    0.417
13033 OH2 12.802 18.862 -26.094 oh 2317 TIP3_2317   -0.834
13034 H1 13.545 19.201 -26.577 ho 2317 TIP3_2317    0.417
13035 H2 12.794 17.888 -26.339 ho 2317 TIP3_2317    0.417
13036 OH2 8.872 17.817 -20.953 oh 2318 TIP3_2318   -0.834
13037 H1 9.500 17.286 -21.510 ho 2318 TIP3_2318    0.417
13038 H2 8.014 17.417 -21.050 ho 2318 TIP3_2318    0.417
13039 OH2 2.357 11.032 -31.843 oh 2319 TIP3_2319   -0.834
13040 H1 2.873 10.271 -31.480 ho 2319 TIP3_2319    0.417
13041 H2 2.529 10.967 -32.836 ho 2319 TIP3_2319    0.417
13042 OH2 7.093 13.549 -39.160 oh 2320 TIP3_2320   -0.834
13043 H1 7.906 13.958 -38.839 ho 2320 TIP3_2320    0.417
13044 H2 6.546 13.598 -38.361 ho 2320 TIP3_2320    0.417
13045 OH2 9.785 9.606 -31.307 oh 2321 TIP3_2321   -0.834
13046 H1 9.825 9.231 -32.199 ho 2321 TIP3_2321    0.417
13047 H2 8.990 9.217 -30.910 ho 2321 TIP3_2321    0.417
13048 OH2 7.723 13.488 -26.535 oh 2322 TIP3_2322   -0.834
13049 H1 6.976 13.590 -27.127 ho 2322 TIP3_2322    0.417
13050 H2 8.229 12.813 -26.991 ho 2322 TIP3_2322    0.417
13051 OH2 2.907 14.520 -37.912 oh 2323 TIP3_2323   -0.834
13052 H1 3.692 14.038 -37.513 ho 2323 TIP3_2323    0.417
13053 H2 3.329 15.309 -38.249 ho 2323 TIP3_2323    0.417
13054 OH2 19.103 5.304 -31.644 oh 2324 TIP3_2324   -0.834
13055 H1 18.739 5.358 -30.753 ho 2324 TIP3_2324    0.417
13056 H2 19.649 6.059 -31.720 ho 2324 TIP3_2324    0.417
13057 OH2 12.237 19.828 -22.052 oh 2325 TIP3_2325   -0.834
13058 H1 11.744 20.081 -21.274 ho 2325 TIP3_2325    0.417
13059 H2 12.524 18.906 -21.791 ho 2325 TIP3_2325    0.417
13060 OH2 1.160 5.788 -25.788 oh 2326 TIP3_2326   -0.834
13061 H1 1.076 5.109 -25.087 ho 2326 TIP3_2326    0.417
13062 H2 1.406 5.281 -26.565 ho 2326 TIP3_2326    0.417
13063 OH2 17.471 19.720 -31.284 oh 2327 TIP3_2327   -0.834
13064 H1 17.895 20.351 -30.629 ho 2327 TIP3_2327    0.417
13065 H2 16.619 20.104 -31.425 ho 2327 TIP3_2327    0.417
13066 OH2 16.331 16.643 -22.140 oh 2328 TIP3_2328   -0.834
13067 H1 15.515 16.693 -22.685 ho 2328 TIP3_2328    0.417
13068 H2 16.853 17.372 -22.517 ho 2328 TIP3_2328    0.417
13069 OH2 3.000 16.877 -25.751 oh 2329 TIP3_2329   -0.834
13070 H1 3.602 17.081 -26.447 ho 2329 TIP3_2329    0.417
13071 H2 2.214 16.555 -26.221 ho 2329 TIP3_2329    0.417
13072 OH2 21.547 20.624 -25.562 oh 2330 TIP3_2330   -0.834
13073 H1 21.543 21.414 -26.150 ho 2330 TIP3_2330    0.417
13074 H2 21.066 21.010 -24.761 ho 2330 TIP3_2330    0.417
13075 OH2 12.291 2.648 -38.152 oh 2331 TIP3_2331   -0.834
13076 H1 11.437 3.105 -38.052 ho 2331 TIP3_2331    0.417
13077 H2 12.939 3.329 -38.400 ho 2331 TIP3_2331    0.417
13078 OH2 3.131 8.693 -34.588 oh 2332 TIP3_2332   -0.834
13079 H1 3.039 7.821 -34.245 ho 2332 TIP3_2332    0.417
13080 H2 2.481 8.666 -35.332 ho 2332 TIP3_2332    0.417
13081 OH2 8.717 4.411 -32.949 oh 2333 TIP3_2333   -0.834
13082 H1 8.171 4.886 -33.598 ho 2333 TIP3_2333    0.417
13083 H2 9.515 4.289 -33.485 ho 2333 TIP3_2333    0.417
13084 OH2 6.881 16.629 -33.600 oh 2334 TIP3_2334   -0.834
13085 H1 6.619 15.769 -33.298 ho 2334 TIP3_2334    0.417
13086 H2 7.756 16.736 -33.184 ho 2334 TIP3_2334    0.417
13087 OH2 9.528 24.243 -34.096 oh 2335 TIP3_2335   -0.834
13088 H1 9.106 23.780 -33.351 ho 2335 TIP3_2335    0.417
13089 H2 8.788 24.595 -34.618 ho 2335 TIP3_2335    0.417
13090 OH2 5.424 19.378 -34.175 oh 2336 TIP3_2336   -0.834
13091 H1 6.172 18.864 -33.785 ho 2336 TIP3_2336    0.417
13092 H2 5.534 19.242 -35.157 ho 2336 TIP3_2336    0.417
13093 OH2 2.743 12.380 -34.522 oh 2337 TIP3_2337   -0.834
13094 H1 3.278 13.222 -34.380 ho 2337 TIP3_2337    0.417
13095 H2 2.645 12.266 -35.494 ho 2337 TIP3_2337    0.417
13096 OH2 19.064 23.303 -33.172 oh 2338 TIP3_2338   -0.834
13097 H1 19.795 23.065 -32.581 ho 2338 TIP3_2338    0.417
13098 H2 19.419 24.175 -33.503 ho 2338 TIP3_2338    0.417
13099 OH2 6.046 8.069 -34.847 oh 2339 TIP3_2339   -0.834
13100 H1 6.689 8.175 -34.057 ho 2339 TIP3_2339    0.417
13101 H2 5.211 8.605 -34.686 ho 2339 TIP3_2339    0.417
13102 OH2 13.037 22.272 -26.204 oh 2340 TIP3_2340   -0.834
13103 H1 12.108 21.888 -26.182 ho 2340 TIP3_2340    0.417
13104 H2 13.059 22.624 -27.124 ho 2340 TIP3_2340    0.417
13105 OH2 9.405 17.317 -33.029 oh 2341 TIP3_2341   -0.834
13106 H1 9.355 16.812 -33.883 ho 2341 TIP3_2341    0.417
13107 H2 10.026 16.784 -32.466 ho 2341 TIP3_2341    0.417
13108 OH2 16.624 14.048 -37.138 oh 2342 TIP3_2342   -0.834
13109 H1 17.033 14.837 -37.505 ho 2342 TIP3_2342    0.417
13110 H2 16.961 14.028 -36.298 ho 2342 TIP3_2342    0.417
13111 OH2 14.898 6.119 -34.968 oh 2343 TIP3_2343   -0.834
13112 H1 14.980 5.186 -35.256 ho 2343 TIP3_2343    0.417
13113 H2 15.301 6.228 -34.103 ho 2343 TIP3_2343    0.417
13114 OH2 0.478 17.970 -21.149 oh 2344 TIP3_2344   -0.834
13115 H1 0.531 18.882 -20.877 ho 2344 TIP3_2344    0.417
13116 H2 0.863 17.966 -22.071 ho 2344 TIP3_2344    0.417
13117 OH2 12.281 6.681 -25.760 oh 2345 TIP3_2345   -0.834
13118 H1 12.520 7.442 -26.341 ho 2345 TIP3_2345    0.417
13119 H2 12.940 6.105 -26.124 ho 2345 TIP3_2345    0.417
13120 OH2 7.160 18.588 -26.791 oh 2346 TIP3_2346   -0.834
13121 H1 7.246 19.496 -26.441 ho 2346 TIP3_2346    0.417
13122 H2 8.039 18.240 -26.460 ho 2346 TIP3_2346    0.417
13123 OH2 12.408 24.072 -22.887 oh 2347 TIP3_2347   -0.834
13124 H1 11.985 24.960 -23.180 ho 2347 TIP3_2347    0.417
13125 H2 11.623 23.675 -22.373 ho 2347 TIP3_2347    0.417
13126 OH2 10.826 3.528 -23.171 oh 2348 TIP3_2348   -0.834
13127 H1 10.546 2.563 -22.983 ho 2348 TIP3_2348    0.417
13128 H2 10.225 3.805 -23.879 ho 2348 TIP3_2348    0.417
13129 OH2 21.611 6.062 -23.755 oh 2349 TIP3_2349   -0.834
13130 H1 21.325 7.017 -23.912 ho 2349 TIP3_2349    0.417
13131 H2 22.446 6.075 -24.233 ho 2349 TIP3_2349    0.417
13132 OH2 16.760 17.850 -34.867 oh 2350 TIP3_2350   -0.834
13133 H1 17.478 17.552 -35.393 ho 2350 TIP3_2350    0.417
13134 H2 16.212 18.274 -35.512 ho 2350 TIP3_2350    0.417
13135 OH2 23.825 14.622 -36.903 oh 2351 TIP3_2351   -0.834
13136 H1 24.832 14.650 -36.955 ho 2351 TIP3_2351    0.417
13137 H2 23.640 14.511 -35.960 ho 2351 TIP3_2351    0.417
13138 OH2 23.634 10.287 -28.490 oh 2352 TIP3_2352   -0.834
13139 H1 23.427 11.220 -28.618 ho 2352 TIP3_2352    0.417
13140 H2 24.097 9.998 -29.324 ho 2352 TIP3_2352    0.417
13141 OH2 8.674 19.213 -29.291 oh 2353 TIP3_2353   -0.834
13142 H1 7.753 19.505 -29.412 ho 2353 TIP3_2353    0.417
13143 H2 8.706 18.938 -28.333 ho 2353 TIP3_2353    0.417
13144 OH2 24.019 21.126 -31.441 oh 2354 TIP3_2354   -0.834
13145 H1 24.475 21.956 -31.678 ho 2354 TIP3_2354    0.417
13146 H2 24.651 20.580 -30.933 ho 2354 TIP3_2354    0.417
13147 OH2 11.162 2.874 -27.021 oh 2355 TIP3_2355   -0.834
13148 H1 12.054 2.642 -26.800 ho 2355 TIP3_2355    0.417
13149 H2 10.784 2.060 -27.081 ho 2355 TIP3_2355    0.417
13150 OH2 12.367 16.934 -21.395 oh 2356 TIP3_2356   -0.834
13151 H1 12.978 16.175 -21.274 ho 2356 TIP3_2356    0.417
13152 H2 12.187 16.830 -22.344 ho 2356 TIP3_2356    0.417
13153 OH2 14.317 12.395 -27.048 oh 2357 TIP3_2357   -0.834
13154 H1 14.031 12.760 -26.186 ho 2357 TIP3_2357    0.417
13155 H2 14.054 13.127 -27.599 ho 2357 TIP3_2357    0.417
13156 OH2 7.300 5.502 -34.924 oh 2358 TIP3_2358   -0.834
13157 H1 7.005 5.159 -35.743 ho 2358 TIP3_2358    0.417
13158 H2 6.914 6.375 -34.817 ho 2358 TIP3_2358    0.417
13159 OH2 10.551 20.059 -30.927 oh 2359 TIP3_2359   -0.834
13160 H1 9.888 19.910 -30.276 ho 2359 TIP3_2359    0.417
13161 H2 9.991 20.042 -31.755 ho 2359 TIP3_2359    0.417
13162 OH2 23.153 10.899 -23.488 oh 2360 TIP3_2360   -0.834
13163 H1 22.316 10.998 -23.073 ho 2360 TIP3_2360    0.417
13164 H2 23.704 11.027 -22.710 ho 2360 TIP3_2360    0.417
13165 OH2 16.039 4.633 -37.329 oh 2361 TIP3_2361   -0.834
13166 H1 15.909 3.804 -36.842 ho 2361 TIP3_2361    0.417
13167 H2 16.994 4.671 -37.272 ho 2361 TIP3_2361    0.417
13168 OH2 14.192 2.065 -25.877 oh 2362 TIP3_2362   -0.834
13169 H1 14.122 1.450 -26.610 ho 2362 TIP3_2362    0.417
13170 H2 14.538 1.461 -25.188 ho 2362 TIP3_2362    0.417
13171 OH2 9.747 10.091 -24.128 oh 2363 TIP3_2363   -0.834
13172 H1 8.802 10.371 -23.863 ho 2363 TIP3_2363    0.417
13173 H2 10.027 9.529 -23.414 ho 2363 TIP3_2363    0.417
13174 OH2 11.528 5.978 -39.727 oh 2364 TIP3_2364   -0.834
13175 H1 11.655 6.907 -39.596 ho 2364 TIP3_2364    0.417
13176 H2 12.409 5.582 -39.468 ho 2364 TIP3_2364    0.417
13177 OH2 6.639 22.368 -35.731 oh 2365 TIP3_2365   -0.834
13178 H1 5.833 22.558 -36.269 ho 2365 TIP3_2365    0.417
13179 H2 6.483 22.829 -34.909 ho 2365 TIP3_2365    0.417
13180 OH2 17.248 2.118 -28.487 oh 2366 TIP3_2366   -0.834
13181 H1 17.128 2.046 -29.461 ho 2366 TIP3_2366    0.417
13182 H2 17.647 1.300 -28.214 ho 2366 TIP3_2366    0.417
13183 OH2 23.207 2.256 -23.209 oh 2367 TIP3_2367   -0.834
13184 H1 23.994 1.781 -23.586 ho 2367 TIP3_2367    0.417
13185 H2 22.672 2.476 -23.976 ho 2367 TIP3_2367    0.417
13186 OH2 22.949 23.027 -27.540 oh 2368 TIP3_2368   -0.834
13187 H1 22.852 23.176 -26.569 ho 2368 TIP3_2368    0.417
13188 H2 23.493 22.197 -27.618 ho 2368 TIP3_2368    0.417
13189 OH2 22.206 4.973 -35.492 oh 2369 TIP3_2369   -0.834
13190 H1 21.785 5.445 -36.229 ho 2369 TIP3_2369    0.417
13191 H2 22.644 4.219 -35.923 ho 2369 TIP3_2369    0.417
13192 OH2 2.886 20.757 -36.302 oh 2370 TIP3_2370   -0.834
13193 H1 2.458 20.755 -35.429 ho 2370 TIP3_2370    0.417
13194 H2 3.739 21.156 -36.125 ho 2370 TIP3_2370    0.417
13195 OH2 21.343 13.026 -38.292 oh 2371 TIP3_2371   -0.834
13196 H1 21.102 13.919 -38.590 ho 2371 TIP3_2371    0.417
13197 H2 20.968 13.014 -37.381 ho 2371 TIP3_2371    0.417
13198 OH2 11.928 9.027 -21.992 oh 2372 TIP3_2372   -0.834
13199 H1 11.850 8.124 -22.383 ho 2372 TIP3_2372    0.417
13200 H2 12.662 9.429 -22.485 ho 2372 TIP3_2372    0.417
13201 OH2 10.653 0.857 -36.046 oh 2373 TIP3_2373   -0.834
13202 H1 10.956 1.183 -35.187 ho 2373 TIP3_2373    0.417
13203 H2 11.136 1.461 -36.642 ho 2373 TIP3_2373    0.417
13204 OH2 5.835 23.790 -32.910 oh 2374 TIP3_2374   -0.834
13205 H1 6.636 23.409 -32.518 ho 2374 TIP3_2374    0.417
13206 H2 5.900 24.728 -32.728 ho 2374 TIP3_2374    0.417
13207 OH2 10.370 6.305 -30.968 oh 2375 TIP3_2375   -0.834
13208 H1 10.419 5.340 -31.090 ho 2375 TIP3_2375    0.417
13209 H2 9.481 6.418 -30.629 ho 2375 TIP3_2375    0.417
13210 OH2 7.031 1.248 -26.222 oh 2376 TIP3_2376   -0.834
13211 H1 6.580 2.134 -26.055 ho 2376 TIP3_2376    0.417
13212 H2 7.425 1.036 -25.354 ho 2376 TIP3_2376    0.417
13213 OH2 4.361 1.115 -34.689 oh 2377 TIP3_2377   -0.834
13214 H1 5.188 0.555 -34.557 ho 2377 TIP3_2377    0.417
13215 H2 4.590 1.982 -34.224 ho 2377 TIP3_2377    0.417
13216 OH2 7.733 5.590 -30.624 oh 2378 TIP3_2378   -0.834
13217 H1 7.538 5.142 -31.436 ho 2378 TIP3_2378    0.417
13218 H2 8.111 4.846 -30.097 ho 2378 TIP3_2378    0.417
13219 OH2 13.592 13.819 -24.876 oh 2379 TIP3_2379   -0.834
13220 H1 13.085 13.482 -24.102 ho 2379 TIP3_2379    0.417
13221 H2 14.458 13.516 -24.519 ho 2379 TIP3_2379    0.417
13222 OH2 4.435 3.189 -28.513 oh 2380 TIP3_2380   -0.834
13223 H1 4.147 4.086 -28.564 ho 2380 TIP3_2380    0.417
13224 H2 4.190 2.885 -27.613 ho 2380 TIP3_2380    0.417
13225 OH2 14.938 9.932 -25.639 oh 2381 TIP3_2381   -0.834
13226 H1 15.187 9.950 -24.744 ho 2381 TIP3_2381    0.417
13227 H2 14.807 10.877 -25.855 ho 2381 TIP3_2381    0.417
13228 OH2 17.507 24.164 -37.439 oh 2382 TIP3_2382   -0.834
13229 H1 17.647 23.296 -37.205 ho 2382 TIP3_2382    0.417
13230 H2 18.194 24.580 -36.914 ho 2382 TIP3_2382    0.417
13231 OH2 7.564 17.521 -37.841 oh 2383 TIP3_2383   -0.834
13232 H1 8.279 17.363 -38.477 ho 2383 TIP3_2383    0.417
13233 H2 7.003 18.169 -38.403 ho 2383 TIP3_2383    0.417
13234 OH2 3.614 23.324 -35.144 oh 2384 TIP3_2384   -0.834
13235 H1 4.126 23.216 -34.352 ho 2384 TIP3_2384    0.417
13236 H2 2.748 23.295 -34.827 ho 2384 TIP3_2384    0.417
13237 OH2 6.246 8.527 -22.479 oh 2385 TIP3_2385   -0.834
13238 H1 6.898 7.901 -22.121 ho 2385 TIP3_2385    0.417
13239 H2 5.392 8.003 -22.459 ho 2385 TIP3_2385    0.417
13240 OH2 18.021 9.664 -31.202 oh 2386 TIP3_2386   -0.834
13241 H1 18.888 9.471 -30.753 ho 2386 TIP3_2386    0.417
13242 H2 18.215 10.052 -32.054 ho 2386 TIP3_2386    0.417
13243 OH2 18.741 4.513 -37.562 oh 2387 TIP3_2387   -0.834
13244 H1 19.065 5.060 -36.834 ho 2387 TIP3_2387    0.417
13245 H2 18.923 5.117 -38.289 ho 2387 TIP3_2387    0.417
13246 OH2 6.141 23.695 -25.862 oh 2388 TIP3_2388   -0.834
13247 H1 5.716 22.926 -25.394 ho 2388 TIP3_2388    0.417
13248 H2 6.797 24.012 -25.232 ho 2388 TIP3_2388    0.417
13249 OH2 18.963 0.606 -37.344 oh 2389 TIP3_2389   -0.834
13250 H1 19.761 0.198 -37.012 ho 2389 TIP3_2389    0.417
13251 H2 19.347 1.250 -38.010 ho 2389 TIP3_2389    0.417
13252 OH2 3.583 5.824 -36.317 oh 2390 TIP3_2390   -0.834
13253 H1 3.557 5.908 -35.305 ho 2390 TIP3_2390    0.417
13254 H2 4.160 5.067 -36.388 ho 2390 TIP3_2390    0.417
13255 OH2 22.900 12.750 -29.229 oh 2391 TIP3_2391   -0.834
13256 H1 22.481 12.993 -30.067 ho 2391 TIP3_2391    0.417
13257 H2 22.900 13.601 -28.741 ho 2391 TIP3_2391    0.417
13258 OH2 19.075 2.059 -26.290 oh 2392 TIP3_2392   -0.834
13259 H1 18.552 1.941 -25.440 ho 2392 TIP3_2392    0.417
13260 H2 18.423 2.118 -27.033 ho 2392 TIP3_2392    0.417
13261 OH2 13.184 13.079 -37.294 oh 2393 TIP3_2393   -0.834
13262 H1 12.940 12.568 -36.584 ho 2393 TIP3_2393    0.417
13263 H2 14.167 13.220 -37.182 ho 2393 TIP3_2393    0.417
13264 OH2 17.334 11.686 -25.187 oh 2394 TIP3_2394   -0.834
13265 H1 18.041 12.213 -24.698 ho 2394 TIP3_2394    0.417
13266 H2 17.639 11.612 -26.119 ho 2394 TIP3_2394    0.417
13267 OH2 19.283 23.957 -27.765 oh 2395 TIP3_2395   -0.834
13268 H1 19.874 24.685 -27.741 ho 2395 TIP3_2395    0.417
13269 H2 18.414 24.423 -27.719 ho 2395 TIP3_2395    0.417
13270 OH2 22.869 16.334 -31.705 oh 2396 TIP3_2396   -0.834
13271 H1 22.197 16.517 -32.444 ho 2396 TIP3_2396    0.417
13272 H2 22.356 15.984 -30.975 ho 2396 TIP3_2396    0.417
13273 OH2 21.844 2.163 -36.682 oh 2397 TIP3_2397   -0.834
13274 H1 21.238 2.308 -37.441 ho 2397 TIP3_2397    0.417
13275 H2 21.242 2.343 -35.947 ho 2397 TIP3_2397    0.417
13276 OH2 3.287 4.686 -31.030 oh 2398 TIP3_2398   -0.834
13277 H1 3.048 4.997 -30.130 ho 2398 TIP3_2398    0.417
13278 H2 2.596 3.964 -31.101 ho 2398 TIP3_2398    0.417
13279 OH2 14.792 23.889 -24.545 oh 2399 TIP3_2399   -0.834
13280 H1 14.105 23.771 -23.855 ho 2399 TIP3_2399    0.417
13281 H2 14.439 23.248 -25.168 ho 2399 TIP3_2399    0.417
13282 OH2 8.835 6.798 -21.720 oh 2400 TIP3_2400   -0.834
13283 H1 9.717 6.778 -22.057 ho 2400 TIP3_2400    0.417
13284 H2 8.509 5.949 -22.116 ho 2400 TIP3_2400    0.417
13285 OH2 22.367 5.772 -27.404 oh 2401 TIP3_2401   -0.834
13286 H1 21.542 5.491 -26.931 ho 2401 TIP3_2401    0.417
13287 H2 22.968 5.144 -27.096 ho 2401 TIP3_2401    0.417
13288 OH2 1.014 16.845 -34.841 oh 2402 TIP3_2402   -0.834
13289 H1 0.072 17.183 -34.860 ho 2402 TIP3_2402    0.417
13290 H2 0.833 16.004 -35.274 ho 2402 TIP3_2402    0.417
13291 OH2 15.321 0.699 -23.592 oh 2403 TIP3_2403   -0.834
13292 H1 15.546 -0.216 -23.268 ho 2403 TIP3_2403    0.417
13293 H2 14.467 0.854 -23.174 ho 2403 TIP3_2403    0.417
13294 OH2 13.872 5.165 -27.349 oh 2404 TIP3_2404   -0.834
13295 H1 14.333 4.322 -27.181 ho 2404 TIP3_2404    0.417
13296 H2 14.365 5.598 -28.107 ho 2404 TIP3_2404    0.417
13297 OH2 1.637 11.087 -38.996 oh 2405 TIP3_2405   -0.834
13298 H1 2.498 11.252 -39.407 ho 2405 TIP3_2405    0.417
13299 H2 1.017 11.028 -39.745 ho 2405 TIP3_2405    0.417
13300 OH2 1.257 18.094 -23.884 oh 2406 TIP3_2406   -0.834
13301 H1 2.045 18.139 -24.451 ho 2406 TIP3_2406    0.417
13302 H2 0.685 17.283 -24.227 ho 2406 TIP3_2406    0.417
13303 OH2 24.027 20.331 -24.579 oh 2407 TIP3_2407   -0.834
13304 H1 23.094 20.184 -24.846 ho 2407 TIP3_2407    0.417
13305 H2 23.905 20.929 -23.814 ho 2407 TIP3_2407    0.417
13306 OH2 19.550 -0.128 -33.305 oh 2408 TIP3_2408   -0.834
13307 H1 18.572 -0.321 -33.396 ho 2408 TIP3_2408    0.417
13308 H2 19.653 0.722 -33.739 ho 2408 TIP3_2408    0.417
13309 OH2 17.540 13.028 -30.858 oh 2409 TIP3_2409   -0.834
13310 H1 17.076 12.219 -30.520 ho 2409 TIP3_2409    0.417
13311 H2 16.834 13.443 -31.438 ho 2409 TIP3_2409    0.417
13312 OH2 24.052 6.964 -24.827 oh 2410 TIP3_2410   -0.834
13313 H1 24.301 6.204 -25.357 ho 2410 TIP3_2410    0.417
13314 H2 24.290 7.702 -25.316 ho 2410 TIP3_2410    0.417
13315 OH2 7.586 16.790 -24.513 oh 2411 TIP3_2411   -0.834
13316 H1 8.376 16.961 -25.053 ho 2411 TIP3_2411    0.417
13317 H2 7.801 15.882 -24.197 ho 2411 TIP3_2411    0.417
13318 OH2 2.223 14.014 -26.033 oh 2412 TIP3_2412   -0.834
13319 H1 1.743 14.594 -25.397 ho 2412 TIP3_2412    0.417
13320 H2 1.850 13.084 -25.856 ho 2412 TIP3_2412    0.417
13321 OH2 7.381 4.281 -23.169 oh 2413 TIP3_2413   -0.834
13322 H1 6.517 3.803 -23.188 ho 2413 TIP3_2413    0.417
13323 H2 7.710 4.154 -24.038 ho 2413 TIP3_2413    0.417
13324 OH2 3.244 14.154 -29.852 oh 2414 TIP3_2414   -0.834
13325 H1 3.315 14.142 -28.903 ho 2414 TIP3_2414    0.417
13326 H2 3.062 15.117 -29.976 ho 2414 TIP3_2414    0.417
13327 OH2 5.116 13.130 -37.236 oh 2415 TIP3_2415   -0.834
13328 H1 5.739 12.963 -36.532 ho 2415 TIP3_2415    0.417
13329 H2 4.814 12.221 -37.426 ho 2415 TIP3_2415    0.417
13330 OH2 24.079 4.231 -33.533 oh 2416 TIP3_2416   -0.834
13331 H1 23.382 4.558 -34.097 ho 2416 TIP3_2416    0.417
13332 H2 23.989 3.222 -33.588 ho 2416 TIP3_2416    0.417
13333 OH2 14.270 0.575 -37.443 oh 2417 TIP3_2417   -0.834
13334 H1 13.738 -0.145 -37.786 ho 2417 TIP3_2417    0.417
13335 H2 13.629 1.323 -37.615 ho 2417 TIP3_2417    0.417
13336 OH2 11.165 17.382 -28.477 oh 2418 TIP3_2418   -0.834
13337 H1 11.779 18.006 -28.884 ho 2418 TIP3_2418    0.417
13338 H2 11.612 16.537 -28.365 ho 2418 TIP3_2418    0.417
13339 OH2 7.950 14.024 -23.862 oh 2419 TIP3_2419   -0.834
13340 H1 7.841 13.104 -23.603 ho 2419 TIP3_2419    0.417
13341 H2 7.767 13.892 -24.826 ho 2419 TIP3_2419    0.417
13342 OH2 16.712 6.504 -32.792 oh 2420 TIP3_2420   -0.834
13343 H1 17.466 6.131 -32.295 ho 2420 TIP3_2420    0.417
13344 H2 15.988 6.552 -32.122 ho 2420 TIP3_2420    0.417
13345 OH2 12.000 5.922 -36.293 oh 2421 TIP3_2421   -0.834
13346 H1 12.827 6.075 -35.857 ho 2421 TIP3_2421    0.417
13347 H2 11.406 6.698 -36.077 ho 2421 TIP3_2421    0.417
13348 OH2 19.137 13.712 -24.041 oh 2422 TIP3_2422   -0.834
13349 H1 19.583 13.828 -24.895 ho 2422 TIP3_2422    0.417
13350 H2 19.301 14.591 -23.577 ho 2422 TIP3_2422    0.417
13351 OH2 13.146 3.444 -32.676 oh 2423 TIP3_2423   -0.834
13352 H1 13.822 3.278 -33.319 ho 2423 TIP3_2423    0.417
13353 H2 13.298 4.354 -32.307 ho 2423 TIP3_2423    0.417
13354 OH2 17.816 23.442 -23.875 oh 2424 TIP3_2424   -0.834
13355 H1 17.063 24.004 -23.635 ho 2424 TIP3_2424    0.417
13356 H2 17.334 22.645 -24.060 ho 2424 TIP3_2424    0.417
13357 OH2 10.592 14.396 -25.750 oh 2425 TIP3_2425   -0.834
13358 H1 10.721 13.731 -25.066 ho 2425 TIP3_2425    0.417
13359 H2 9.608 14.476 -25.822 ho 2425 TIP3_2425    0.417
13360 OH2 20.823 13.116 -35.286 oh 2426 TIP3_2426   -0.834
13361 H1 21.056 12.908 -34.360 ho 2426 TIP3_2426    0.417
13362 H2 20.481 14.058 -35.077 ho 2426 TIP3_2426    0.417
13363 OH2 14.947 9.750 -22.914 oh 2427 TIP3_2427   -0.834
13364 H1 15.373 9.766 -22.042 ho 2427 TIP3_2427    0.417
13365 H2 14.774 8.796 -23.023 ho 2427 TIP3_2427    0.417
13366 OH2 1.643 20.164 -31.532 oh 2428 TIP3_2428   -0.834
13367 H1 1.838 19.758 -30.635 ho 2428 TIP3_2428    0.417
13368 H2 2.335 19.836 -32.102 ho 2428 TIP3_2428    0.417
13369 OH2 23.910 11.527 -35.364 oh 2429 TIP3_2429   -0.834
13370 H1 24.615 11.743 -35.913 ho 2429 TIP3_2429    0.417
13371 H2 23.595 12.378 -34.999 ho 2429 TIP3_2429    0.417
13372 OH2 4.361 20.841 -27.592 oh 2430 TIP3_2430   -0.834
13373 H1 5.067 21.073 -28.212 ho 2430 TIP3_2430    0.417
13374 H2 4.607 19.999 -27.279 ho 2430 TIP3_2430    0.417
13375 OH2 14.576 16.100 -37.527 oh 2431 TIP3_2431   -0.834
13376 H1 15.304 15.628 -37.110 ho 2431 TIP3_2431    0.417
13377 H2 14.843 16.162 -38.437 ho 2431 TIP3_2431    0.417
13378 OH2 15.671 22.998 -34.921 oh 2432 TIP3_2432   -0.834
13379 H1 16.489 22.532 -35.198 ho 2432 TIP3_2432    0.417
13380 H2 15.442 23.662 -35.620 ho 2432 TIP3_2432    0.417
13381 OH2 6.781 15.539 -21.330 oh 2433 TIP3_2433   -0.834
13382 H1 7.707 15.453 -21.683 ho 2433 TIP3_2433    0.417
13383 H2 6.211 15.368 -22.087 ho 2433 TIP3_2433    0.417
13384 OH2 4.941 13.988 -26.723 oh 2434 TIP3_2434   -0.834
13385 H1 4.993 14.950 -26.895 ho 2434 TIP3_2434    0.417
13386 H2 3.990 13.865 -26.474 ho 2434 TIP3_2434    0.417
13387 OH2 9.965 20.105 -23.795 oh 2435 TIP3_2435   -0.834
13388 H1 9.602 20.773 -23.224 ho 2435 TIP3_2435    0.417
13389 H2 10.699 19.660 -23.262 ho 2435 TIP3_2435    0.417
13390 OH2 13.498 17.889 -35.846 oh 2436 TIP3_2436   -0.834
13391 H1 14.100 18.610 -35.754 ho 2436 TIP3_2436    0.417
13392 H2 13.718 17.463 -36.701 ho 2436 TIP3_2436    0.417
13393 OH2 20.003 7.962 -33.127 oh 2437 TIP3_2437   -0.834
13394 H1 20.421 8.736 -33.593 ho 2437 TIP3_2437    0.417
13395 H2 20.383 7.992 -32.302 ho 2437 TIP3_2437    0.417
13396 OH2 24.518 1.226 -31.175 oh 2438 TIP3_2438   -0.834
13397 H1 23.611 0.893 -31.009 ho 2438 TIP3_2438    0.417
13398 H2 24.603 2.074 -30.791 ho 2438 TIP3_2438    0.417
13399 OH2 4.510 13.708 -20.676 oh 2439 TIP3_2439   -0.834
13400 H1 5.347 14.166 -20.983 ho 2439 TIP3_2439    0.417
13401 H2 4.207 13.357 -21.520 ho 2439 TIP3_2439    0.417
13402 OH2 19.076 21.634 -29.196 oh 2440 TIP3_2440   -0.834
13403 H1 19.852 21.110 -29.195 ho 2440 TIP3_2440    0.417
13404 H2 19.385 22.486 -28.857 ho 2440 TIP3_2440    0.417
13405 OH2 17.928 3.077 -32.972 oh 2441 TIP3_2441   -0.834
13406 H1 18.414 2.842 -33.818 ho 2441 TIP3_2441    0.417
13407 H2 18.419 3.887 -32.600 ho 2441 TIP3_2441    0.417
13408 OH2 3.380 18.426 -37.451 oh 2442 TIP3_2442   -0.834
13409 H1 4.354 18.651 -37.324 ho 2442 TIP3_2442    0.417
13410 H2 2.986 19.181 -37.155 ho 2442 TIP3_2442    0.417
13411 OH2 16.922 17.099 -32.180 oh 2443 TIP3_2443   -0.834
13412 H1 16.828 17.400 -33.141 ho 2443 TIP3_2443    0.417
13413 H2 17.057 17.954 -31.699 ho 2443 TIP3_2443    0.417
13414 OH2 5.081 12.085 -30.702 oh 2444 TIP3_2444   -0.834
13415 H1 4.579 12.884 -30.372 ho 2444 TIP3_2444    0.417
13416 H2 4.330 11.618 -31.111 ho 2444 TIP3_2444    0.417
13417 OH2 13.347 15.840 -26.987 oh 2445 TIP3_2445   -0.834
13418 H1 13.356 15.008 -26.444 ho 2445 TIP3_2445    0.417
13419 H2 13.465 15.556 -27.922 ho 2445 TIP3_2445    0.417
13420 OH2 1.173 1.160 -37.953 oh 2446 TIP3_2446   -0.834
13421 H1 0.814 2.030 -38.388 ho 2446 TIP3_2446    0.417
13422 H2 2.180 1.313 -38.001 ho 2446 TIP3_2446    0.417
13423 OH2 10.022 10.199 -26.902 oh 2447 TIP3_2447   -0.834
13424 H1 9.280 9.568 -27.107 ho 2447 TIP3_2447    0.417
13425 H2 10.067 10.282 -25.904 ho 2447 TIP3_2447    0.417
13426 OH2 20.683 22.002 -23.198 oh 2448 TIP3_2448   -0.834
13427 H1 21.228 21.556 -22.575 ho 2448 TIP3_2448    0.417
13428 H2 19.876 22.047 -22.709 ho 2448 TIP3_2448    0.417
13429 OH2 19.892 4.754 -26.313 oh 2449 TIP3_2449   -0.834
13430 H1 19.525 5.511 -25.787 ho 2449 TIP3_2449    0.417
13431 H2 19.991 3.969 -25.688 ho 2449 TIP3_2449    0.417
13432 OH2 11.166 1.356 -33.323 oh 2450 TIP3_2450   -0.834
13433 H1 10.328 1.530 -32.894 ho 2450 TIP3_2450    0.417
13434 H2 11.749 2.118 -32.998 ho 2450 TIP3_2450    0.417
13435 OH2 16.869 20.940 -24.686 oh 2451 TIP3_2451   -0.834
13436 H1 17.141 21.290 -25.546 ho 2451 TIP3_2451    0.417
13437 H2 15.862 20.928 -24.693 ho 2451 TIP3_2451    0.417
13438 OH2 4.991 3.121 -32.768 oh 2452 TIP3_2452   -0.834
13439 H1 4.530 3.721 -32.161 ho 2452 TIP3_2452    0.417
13440 H2 5.596 2.688 -32.130 ho 2452 TIP3_2452    0.417
13441 OH2 7.538 11.315 -33.204 oh 2453 TIP3_2453   -0.834
13442 H1 6.589 11.133 -33.445 ho 2453 TIP3_2453    0.417
13443 H2 7.745 11.978 -33.943 ho 2453 TIP3_2453    0.417
13444 OH2 18.158 23.014 -21.187 oh 2454 TIP3_2454   -0.834
13445 H1 17.561 23.624 -20.701 ho 2454 TIP3_2454    0.417
13446 H2 18.241 23.367 -22.073 ho 2454 TIP3_2454    0.417
13447 OH2 15.400 3.307 -21.248 oh 2455 TIP3_2455   -0.834
13448 H1 14.869 3.395 -22.032 ho 2455 TIP3_2455    0.417
13449 H2 14.963 3.651 -20.523 ho 2455 TIP3_2455    0.417
13450 OH2 18.032 1.733 -23.865 oh 2456 TIP3_2456   -0.834
13451 H1 17.838 1.956 -22.972 ho 2456 TIP3_2456    0.417
13452 H2 17.207 1.195 -24.055 ho 2456 TIP3_2456    0.417
13453 OH2 9.526 15.181 -21.973 oh 2457 TIP3_2457   -0.834
13454 H1 10.125 14.522 -21.587 ho 2457 TIP3_2457    0.417
13455 H2 8.998 14.803 -22.710 ho 2457 TIP3_2457    0.417
13456 OH2 13.641 3.747 -23.397 oh 2458 TIP3_2458   -0.834
13457 H1 12.669 3.714 -23.558 ho 2458 TIP3_2458    0.417
13458 H2 13.986 3.413 -24.231 ho 2458 TIP3_2458    0.417
13459 OH2 11.041 23.026 -30.309 oh 2459 TIP3_2459   -0.834
13460 H1 10.136 23.005 -29.995 ho 2459 TIP3_2459    0.417
13461 H2 11.079 22.205 -30.840 ho 2459 TIP3_2459    0.417
13462 OH2 10.334 15.396 -31.198 oh 2460 TIP3_2460   -0.834
13463 H1 10.097 15.417 -30.287 ho 2460 TIP3_2460    0.417
13464 H2 10.227 14.439 -31.472 ho 2460 TIP3_2460    0.417
13465 OH2 23.749 21.602 -37.406 oh 2461 TIP3_2461   -0.834
13466 H1 22.842 21.885 -37.489 ho 2461 TIP3_2461    0.417
13467 H2 24.025 21.886 -36.536 ho 2461 TIP3_2461    0.417
13468 OH2 14.968 21.984 -38.538 oh 2462 TIP3_2462   -0.834
13469 H1 14.021 22.010 -38.413 ho 2462 TIP3_2462    0.417
13470 H2 15.187 22.848 -38.880 ho 2462 TIP3_2462    0.417
13471 OH2 12.693 8.942 -27.250 oh 2463 TIP3_2463   -0.834
13472 H1 13.336 9.171 -26.505 ho 2463 TIP3_2463    0.417
13473 H2 11.961 9.518 -27.055 ho 2463 TIP3_2463    0.417
13474 OH2 21.535 23.508 -37.628 oh 2464 TIP3_2464   -0.834
13475 H1 20.632 23.622 -37.921 ho 2464 TIP3_2464    0.417
13476 H2 21.482 23.289 -36.667 ho 2464 TIP3_2464    0.417
13477 OH2 5.868 3.734 -37.269 oh 2465 TIP3_2465   -0.834
13478 H1 5.991 4.422 -37.981 ho 2465 TIP3_2465    0.417
13479 H2 6.515 3.043 -37.516 ho 2465 TIP3_2465    0.417
13480 OH2 11.114 3.527 -30.530 oh 2466 TIP3_2466   -0.834
13481 H1 11.585 3.342 -29.719 ho 2466 TIP3_2466    0.417
13482 H2 11.687 3.403 -31.276 ho 2466 TIP3_2466    0.417
13483 OH2 16.811 6.179 -20.699 oh 2467 TIP3_2467   -0.834
13484 H1 17.578 6.609 -21.123 ho 2467 TIP3_2467    0.417
13485 H2 16.497 5.652 -21.343 ho 2467 TIP3_2467    0.417
13486 OH2 8.183 22.502 -22.715 oh 2468 TIP3_2468   -0.834
13487 H1 8.127 22.961 -23.505 ho 2468 TIP3_2468    0.417
13488 H2 7.254 22.316 -22.534 ho 2468 TIP3_2468    0.417
13489 OH2 13.207 7.168 -29.292 oh 2469 TIP3_2469   -0.834
13490 H1 13.067 7.816 -28.530 ho 2469 TIP3_2469    0.417
13491 H2 12.394 6.692 -29.219 ho 2469 TIP3_2469    0.417
13492 OH2 21.733 15.845 -37.796 oh 2470 TIP3_2470   -0.834
13493 H1 21.472 16.103 -36.848 ho 2470 TIP3_2470    0.417
13494 H2 22.506 15.321 -37.761 ho 2470 TIP3_2470    0.417
13495 OH2 4.487 6.469 -25.683 oh 2471 TIP3_2471   -0.834
13496 H1 3.967 7.221 -25.467 ho 2471 TIP3_2471    0.417
13497 H2 4.536 5.898 -24.878 ho 2471 TIP3_2471    0.417
13498 OH2 9.191 16.342 -35.810 oh 2472 TIP3_2472   -0.834
13499 H1 8.579 16.619 -36.561 ho 2472 TIP3_2472    0.417
13500 H2 10.053 16.224 -36.159 ho 2472 TIP3_2472    0.417
13501 OH2 18.948 15.218 -32.220 oh 2473 TIP3_2473   -0.834
13502 H1 18.232 15.820 -32.392 ho 2473 TIP3_2473    0.417
13503 H2 18.515 14.435 -31.871 ho 2473 TIP3_2473    0.417
13504 OH2 20.360 15.962 -34.893 oh 2474 TIP3_2474   -0.834
13505 H1 19.803 16.187 -34.105 ho 2474 TIP3_2474    0.417
13506 H2 20.928 16.766 -34.921 ho 2474 TIP3_2474    0.417
13507 OH2 9.778 17.775 -26.026 oh 2475 TIP3_2475   -0.834
13508 H1 10.528 17.729 -25.361 ho 2475 TIP3_2475    0.417
13509 H2 10.191 17.800 -26.918 ho 2475 TIP3_2475    0.417
13510 OH2 7.272 16.924 -30.124 oh 2476 TIP3_2476   -0.834
13511 H1 7.627 16.061 -30.039 ho 2476 TIP3_2476    0.417
13512 H2 8.078 17.505 -30.046 ho 2476 TIP3_2476    0.417
13513 OH2 16.530 17.366 -28.962 oh 2477 TIP3_2477   -0.834
13514 H1 16.102 18.097 -28.388 ho 2477 TIP3_2477    0.417
13515 H2 15.761 16.978 -29.373 ho 2477 TIP3_2477    0.417
13516 OH2 19.300 6.446 -21.779 oh 2478 TIP3_2478   -0.834
13517 H1 19.792 5.894 -22.420 ho 2478 TIP3_2478    0.417
13518 H2 19.833 6.368 -20.956 ho 2478 TIP3_2478    0.417
13519 OH2 14.838 20.375 -30.168 oh 2479 TIP3_2479   -0.834
13520 H1 14.757 21.348 -30.029 ho 2479 TIP3_2479    0.417
13521 H2 14.355 20.161 -31.046 ho 2479 TIP3_2479    0.417
13522 OH2 12.915 14.559 -32.393 oh 2480 TIP3_2480   -0.834
13523 H1 12.262 14.955 -31.827 ho 2480 TIP3_2480    0.417
13524 H2 12.870 15.197 -33.113 ho 2480 TIP3_2480    0.417
13525 OH2 14.853 11.638 -34.981 oh 2481 TIP3_2481   -0.834
13526 H1 15.656 11.113 -34.745 ho 2481 TIP3_2481    0.417
13527 H2 14.195 11.102 -34.498 ho 2481 TIP3_2481    0.417
13528 OH2 11.666 15.255 -36.465 oh 2482 TIP3_2482   -0.834
13529 H1 12.176 14.436 -36.558 ho 2482 TIP3_2482    0.417
13530 H2 12.406 15.877 -36.501 ho 2482 TIP3_2482    0.417
13531 OH2 1.978 -0.252 -35.229 oh 2483 TIP3_2483   -0.834
13532 H1 2.752 0.332 -35.017 ho 2483 TIP3_2483    0.417
13533 H2 1.598 0.191 -35.955 ho 2483 TIP3_2483    0.417
13534 OH2 4.914 15.843 -23.504 oh 2484 TIP3_2484   -0.834
13535 H1 4.050 15.869 -23.969 ho 2484 TIP3_2484    0.417
13536 H2 5.557 16.361 -24.068 ho 2484 TIP3_2484    0.417
13537 OH2 2.726 0.191 -23.601 oh 2485 TIP3_2485   -0.834
13538 H1 3.178 0.298 -22.718 ho 2485 TIP3_2485    0.417
13539 H2 3.294 -0.421 -24.079 ho 2485 TIP3_2485    0.417
13540 OH2 5.520 19.245 -20.800 oh 2486 TIP3_2486   -0.834
13541 H1 5.791 18.909 -21.647 ho 2486 TIP3_2486    0.417
13542 H2 4.589 19.443 -20.946 ho 2486 TIP3_2486    0.417
13543 OH2 0.944 8.478 -26.492 oh 2487 TIP3_2487   -0.834
13544 H1 0.621 8.604 -25.569 ho 2487 TIP3_2487    0.417
13545 H2 0.947 7.461 -26.527 ho 2487 TIP3_2487    0.417
13546 OH2 5.253 23.800 -29.179 oh 2488 TIP3_2488   -0.834
13547 H1 4.302 23.617 -28.993 ho 2488 TIP3_2488    0.417
13548 H2 5.546 24.181 -28.329 ho 2488 TIP3_2488    0.417
13549 OH2 18.344 21.721 -35.938 oh 2489 TIP3_2489   -0.834
13550 H1 18.911 22.222 -35.374 ho 2489 TIP3_2489    0.417
13551 H2 18.719 20.826 -35.991 ho 2489 TIP3_2489    0.417
13552 OH2 20.629 11.678 -30.667 oh 2490 TIP3_2490   -0.834
13553 H1 20.040 11.910 -29.969 ho 2490 TIP3_2490    0.417
13554 H2 21.006 10.811 -30.436 ho 2490 TIP3_2490    0.417
13555 OH2 10.200 21.434 -38.948 oh 2491 TIP3_2491   -0.834
13556 H1 9.821 21.984 -39.623 ho 2491 TIP3_2491    0.417
13557 H2 9.486 21.386 -38.300 ho 2491 TIP3_2491    0.417
13558 OH2 5.376 11.016 -21.679 oh 2492 TIP3_2492   -0.834
13559 H1 5.542 10.187 -22.116 ho 2492 TIP3_2492    0.417
13560 H2 4.490 11.074 -21.908 ho 2492 TIP3_2492    0.417
13561 OH2 13.022 19.751 -32.477 oh 2493 TIP3_2493   -0.834
13562 H1 12.228 20.005 -31.959 ho 2493 TIP3_2493    0.417
13563 H2 12.674 20.018 -33.346 ho 2493 TIP3_2493    0.417
13564 OH2 0.829 10.646 -21.832 oh 2494 TIP3_2494   -0.834
13565 H1 1.530 10.401 -21.148 ho 2494 TIP3_2494    0.417
13566 H2 0.718 11.638 -21.656 ho 2494 TIP3_2494    0.417
13567 OH2 19.766 0.206 -30.512 oh 2495 TIP3_2495   -0.834
13568 H1 20.017 0.061 -31.485 ho 2495 TIP3_2495    0.417
13569 H2 18.951 0.727 -30.596 ho 2495 TIP3_2495    0.417
13570 OH2 6.362 18.936 -23.479 oh 2496 TIP3_2496   -0.834
13571 H1 6.916 19.276 -24.196 ho 2496 TIP3_2496    0.417
13572 H2 6.685 18.034 -23.400 ho 2496 TIP3_2496    0.417
13573 OH2 19.879 19.214 -36.161 oh 2497 TIP3_2497   -0.834
13574 H1 19.445 18.385 -35.858 ho 2497 TIP3_2497    0.417
13575 H2 20.728 19.071 -35.722 ho 2497 TIP3_2497    0.417
13576 OH2 4.604 23.129 -37.892 oh 2498 TIP3_2498   -0.834
13577 H1 3.764 23.130 -37.396 ho 2498 TIP3_2498    0.417
13578 H2 4.643 24.095 -38.113 ho 2498 TIP3_2498    0.417
13579 OH2 16.710 21.695 -27.272 oh 2499 TIP3_2499   -0.834
13580 H1 17.561 21.487 -27.703 ho 2499 TIP3_2499    0.417
13581 H2 16.466 22.534 -27.691 ho 2499 TIP3_2499    0.417
13582 OH2 13.647 11.816 -30.714 oh 2500 TIP3_2500   -0.834
13583 H1 14.199 11.093 -31.008 ho 2500 TIP3_2500    0.417
13584 H2 12.955 11.462 -30.194 ho 2500 TIP3_2500    0.417
13585 OH2 0.958 12.112 -29.465 oh 2501 TIP3_2501   -0.834
13586 H1 1.463 12.075 -30.303 ho 2501 TIP3_2501    0.417
13587 H2 1.119 13.021 -29.170 ho 2501 TIP3_2501    0.417
13588 OH2 10.725 20.780 -26.168 oh 2502 TIP3_2502   -0.834
13589 H1 11.516 20.121 -26.154 ho 2502 TIP3_2502    0.417
13590 H2 10.329 20.535 -25.333 ho 2502 TIP3_2502    0.417
13591 OH2 14.120 5.964 -31.883 oh 2503 TIP3_2503   -0.834
13592 H1 14.066 6.439 -30.987 ho 2503 TIP3_2503    0.417
13593 H2 13.534 6.537 -32.395 ho 2503 TIP3_2503    0.417
13594 OH2 7.942 21.270 -26.738 oh 2504 TIP3_2504   -0.834
13595 H1 7.565 21.967 -26.227 ho 2504 TIP3_2504    0.417
13596 H2 8.916 21.362 -26.502 ho 2504 TIP3_2504    0.417
13597 OH2 21.859 0.007 -22.153 oh 2505 TIP3_2505   -0.834
13598 H1 22.386 -0.261 -21.380 ho 2505 TIP3_2505    0.417
13599 H2 22.363 0.734 -22.537 ho 2505 TIP3_2505    0.417
13600 OH2 10.201 23.638 -21.331 oh 2506 TIP3_2506   -0.834
13601 H1 9.690 22.871 -21.251 ho 2506 TIP3_2506    0.417
13602 H2 9.583 24.341 -21.362 ho 2506 TIP3_2506    0.417
13603 OH2 17.766 18.655 -23.553 oh 2507 TIP3_2507   -0.834
13604 H1 18.379 19.100 -22.943 ho 2507 TIP3_2507    0.417
13605 H2 17.279 19.366 -23.933 ho 2507 TIP3_2507    0.417
13606 OH2 1.355 24.386 -37.102 oh 2508 TIP3_2508   -0.834
13607 H1 1.494 24.666 -38.053 ho 2508 TIP3_2508    0.417
13608 H2 1.166 23.474 -37.194 ho 2508 TIP3_2508    0.417
13609 OH2 2.875 17.047 -30.510 oh 2509 TIP3_2509   -0.834
13610 H1 3.119 17.208 -31.455 ho 2509 TIP3_2509    0.417
13611 H2 2.899 17.968 -30.173 ho 2509 TIP3_2509    0.417
13612 OH2 10.234 24.140 -36.863 oh 2510 TIP3_2510   -0.834
13613 H1 10.236 24.191 -35.891 ho 2510 TIP3_2510    0.417
13614 H2 9.640 24.914 -37.007 ho 2510 TIP3_2510    0.417
13615 OH2 2.440 9.981 -28.254 oh 2511 TIP3_2511   -0.834
13616 H1 1.738 10.624 -28.575 ho 2511 TIP3_2511    0.417
13617 H2 2.067 9.537 -27.494 ho 2511 TIP3_2511    0.417
13618 OH2 18.668 5.987 -35.151 oh 2512 TIP3_2512   -0.834
13619 H1 17.861 6.239 -34.656 ho 2512 TIP3_2512    0.417
13620 H2 19.310 6.654 -34.979 ho 2512 TIP3_2512    0.417
13621 OH2 18.833 12.117 -28.356 oh 2513 TIP3_2513   -0.834
13622 H1 18.528 12.908 -28.801 ho 2513 TIP3_2513    0.417
13623 H2 18.049 11.588 -28.399 ho 2513 TIP3_2513    0.417
13624 OH2 8.820 21.097 -36.624 oh 2514 TIP3_2514   -0.834
13625 H1 9.469 21.356 -36.038 ho 2514 TIP3_2514    0.417
13626 H2 8.109 21.703 -36.358 ho 2514 TIP3_2514    0.417
13627 OH2 22.922 8.001 -39.282 oh 2515 TIP3_2515   -0.834
13628 H1 23.131 8.376 -38.429 ho 2515 TIP3_2515    0.417
13629 H2 22.930 8.789 -39.846 ho 2515 TIP3_2515    0.417
13630 OH2 24.433 1.769 -37.276 oh 2516 TIP3_2516   -0.834
13631 H1 24.323 0.854 -36.989 ho 2516 TIP3_2516    0.417
13632 H2 23.575 2.116 -36.931 ho 2516 TIP3_2516    0.417
13633 OH2 3.719 5.906 -28.479 oh 2517 TIP3_2517   -0.834
13634 H1 3.395 6.187 -27.588 ho 2517 TIP3_2517    0.417
13635 H2 4.590 6.280 -28.626 ho 2517 TIP3_2517    0.417
13636 OH2 10.399 13.905 -28.489 oh 2518 TIP3_2518   -0.834
13637 H1 10.834 13.074 -28.723 ho 2518 TIP3_2518    0.417
13638 H2 10.700 14.072 -27.575 ho 2518 TIP3_2518    0.417
13639 OH2 23.131 15.015 -27.519 oh 2519 TIP3_2519   -0.834
13640 H1 24.139 14.981 -27.264 ho 2519 TIP3_2519    0.417
13641 H2 23.208 15.749 -28.167 ho 2519 TIP3_2519    0.417
13642 OH2 15.446 23.240 -29.921 oh 2520 TIP3_2520   -0.834
13643 H1 15.836 22.970 -30.793 ho 2520 TIP3_2520    0.417
13644 H2 16.123 23.837 -29.576 ho 2520 TIP3_2520    0.417
13645 OH2 1.481 2.553 -30.971 oh 2521 TIP3_2521   -0.834
13646 H1 1.004 2.381 -30.096 ho 2521 TIP3_2521    0.417
13647 H2 0.929 2.078 -31.618 ho 2521 TIP3_2521    0.417
13648 OH2 20.875 13.563 -26.364 oh 2522 TIP3_2522   -0.834
13649 H1 20.679 12.788 -27.004 ho 2522 TIP3_2522    0.417
13650 H2 21.596 14.089 -26.811 ho 2522 TIP3_2522    0.417
13651 OH2 1.297 22.090 -22.834 oh 2523 TIP3_2523   -0.834
13652 H1 1.814 21.715 -22.120 ho 2523 TIP3_2523    0.417
13653 H2 1.671 22.986 -22.969 ho 2523 TIP3_2523    0.417
13654 OH2 14.291 7.022 -22.462 oh 2524 TIP3_2524   -0.834
13655 H1 14.395 6.139 -22.833 ho 2524 TIP3_2524    0.417
13656 H2 13.973 6.884 -21.530 ho 2524 TIP3_2524    0.417
13657 OH2 7.704 5.573 -38.808 oh 2525 TIP3_2525   -0.834
13658 H1 7.141 5.374 -39.588 ho 2525 TIP3_2525    0.417
13659 H2 7.294 6.463 -38.495 ho 2525 TIP3_2525    0.417
13660 OH2 10.236 7.545 -35.055 oh 2526 TIP3_2526   -0.834
13661 H1 9.374 7.178 -34.836 ho 2526 TIP3_2526    0.417
13662 H2 10.075 8.510 -34.862 ho 2526 TIP3_2526    0.417
13663 OH2 8.010 1.672 -32.664 oh 2527 TIP3_2527   -0.834
13664 H1 7.982 2.638 -32.578 ho 2527 TIP3_2527    0.417
13665 H2 7.347 1.374 -32.045 ho 2527 TIP3_2527    0.417
13666 OH2 23.584 19.921 -33.911 oh 2528 TIP3_2528   -0.834
13667 H1 24.410 20.298 -34.288 ho 2528 TIP3_2528    0.417
13668 H2 23.618 20.134 -32.985 ho 2528 TIP3_2528    0.417
13669 OH2 2.107 3.478 -34.016 oh 2529 TIP3_2529   -0.834
13670 H1 2.630 2.674 -34.261 ho 2529 TIP3_2529    0.417
13671 H2 1.224 3.217 -34.144 ho 2529 TIP3_2529    0.417
13672 OH2 7.961 11.077 -37.240 oh 2530 TIP3_2530   -0.834
13673 H1 8.235 10.952 -36.317 ho 2530 TIP3_2530    0.417
13674 H2 6.991 10.792 -37.268 ho 2530 TIP3_2530    0.417
13675 OH2 16.031 6.439 -29.793 oh 2531 TIP3_2531   -0.834
13676 H1 15.481 7.201 -30.122 ho 2531 TIP3_2531    0.417
13677 H2 16.584 6.851 -29.087 ho 2531 TIP3_2531    0.417
13678 OH2 1.521 2.229 -25.307 oh 2532 TIP3_2532   -0.834
13679 H1 2.351 2.069 -24.827 ho 2532 TIP3_2532    0.417
13680 H2 1.583 1.483 -25.937 ho 2532 TIP3_2532    0.417
13681 OH2 7.066 8.024 -37.447 oh 2533 TIP3_2533   -0.834
13682 H1 6.853 8.167 -36.490 ho 2533 TIP3_2533    0.417
13683 H2 6.146 7.995 -37.901 ho 2533 TIP3_2533    0.417
13684 OH2 14.121 20.709 -23.986 oh 2534 TIP3_2534   -0.834
13685 H1 13.409 20.613 -23.324 ho 2534 TIP3_2534    0.417
13686 H2 13.631 21.032 -24.751 ho 2534 TIP3_2534    0.417
13687 OH2 21.812 24.169 -24.458 oh 2535 TIP3_2535   -0.834
13688 H1 21.420 23.412 -23.948 ho 2535 TIP3_2535    0.417
13689 H2 21.087 24.823 -24.589 ho 2535 TIP3_2535    0.417
13690 OH2 20.395 8.666 -24.045 oh 2536 TIP3_2536   -0.834
13691 H1 20.397 9.599 -23.696 ho 2536 TIP3_2536    0.417
13692 H2 20.891 8.777 -24.935 ho 2536 TIP3_2536    0.417
13693 OH2 10.927 12.566 -23.842 oh 2537 TIP3_2537   -0.834
13694 H1 10.511 12.790 -22.984 ho 2537 TIP3_2537    0.417
13695 H2 10.663 11.687 -24.098 ho 2537 TIP3_2537    0.417
13696 OH2 0.857 4.295 -28.119 oh 2538 TIP3_2538   -0.834
13697 H1 0.568 4.647 -28.984 ho 2538 TIP3_2538    0.417
13698 H2 1.103 3.399 -28.327 ho 2538 TIP3_2538    0.417
13699 OH2 9.706 8.591 -38.454 oh 2539 TIP3_2539   -0.834
13700 H1 10.001 8.098 -37.650 ho 2539 TIP3_2539    0.417
13701 H2 8.797 8.825 -38.206 ho 2539 TIP3_2539    0.417
13702 OH2 24.083 7.049 -34.816 oh 2540 TIP3_2540   -0.834
13703 H1 23.865 7.313 -33.989 ho 2540 TIP3_2540    0.417
13704 H2 23.591 6.212 -34.914 ho 2540 TIP3_2540    0.417
13705 OH2 10.255 12.615 -21.139 oh 2541 TIP3_2541   -0.834
13706 H1 10.637 11.714 -21.125 ho 2541 TIP3_2541    0.417
13707 H2 9.346 12.487 -20.863 ho 2541 TIP3_2541    0.417
13708 OH2 18.496 16.367 -36.937 oh 2542 TIP3_2542   -0.834
13709 H1 19.060 16.420 -37.783 ho 2542 TIP3_2542    0.417
13710 H2 19.086 16.104 -36.284 ho 2542 TIP3_2542    0.417
13711 OH2 22.684 1.663 -33.346 oh 2543 TIP3_2543   -0.834
13712 H1 23.100 0.773 -33.304 ho 2543 TIP3_2543    0.417
13713 H2 22.102 1.541 -34.093 ho 2543 TIP3_2543    0.417
13714 OH2 19.126 11.361 -37.378 oh 2544 TIP3_2544   -0.834
13715 H1 18.288 11.817 -37.292 ho 2544 TIP3_2544    0.417
13716 H2 19.695 11.710 -36.640 ho 2544 TIP3_2544    0.417
13717 OH2 21.980 20.202 -29.425 oh 2545 TIP3_2545   -0.834
13718 H1 22.800 20.304 -29.932 ho 2545 TIP3_2545    0.417
13719 H2 21.564 19.422 -29.955 ho 2545 TIP3_2545    0.417
13720 OH2 22.105 4.211 -31.296 oh 2546 TIP3_2546   -0.834
13721 H1 21.414 4.452 -31.913 ho 2546 TIP3_2546    0.417
13722 H2 22.788 4.049 -31.975 ho 2546 TIP3_2546    0.417
13723 OH2 1.162 21.448 -38.411 oh 2547 TIP3_2547   -0.834
13724 H1 1.683 21.928 -39.107 ho 2547 TIP3_2547    0.417
13725 H2 1.855 21.237 -37.709 ho 2547 TIP3_2547    0.417
13726 OH2 3.189 17.908 -33.323 oh 2548 TIP3_2548   -0.834
13727 H1 3.647 18.520 -33.899 ho 2548 TIP3_2548    0.417
13728 H2 2.445 17.594 -33.858 ho 2548 TIP3_2548    0.417
13729 OH2 19.752 18.383 -30.181 oh 2549 TIP3_2549   -0.834
13730 H1 19.595 17.862 -29.336 ho 2549 TIP3_2549    0.417
13731 H2 18.842 18.587 -30.463 ho 2549 TIP3_2549    0.417
13732 OH2 21.615 2.150 -28.763 oh 2550 TIP3_2550   -0.834
13733 H1 21.567 2.363 -29.678 ho 2550 TIP3_2550    0.417
13734 H2 20.836 1.577 -28.639 ho 2550 TIP3_2550    0.417
13735 OH2 0.352 8.771 -23.849 oh 2551 TIP3_2551   -0.834
13736 H1 -0.479 8.423 -23.587 ho 2551 TIP3_2551    0.417
13737 H2 0.594 9.435 -23.108 ho 2551 TIP3_2551    0.417
13738 OH2 15.378 9.000 -30.598 oh 2552 TIP3_2552   -0.834
13739 H1 15.207 9.030 -31.559 ho 2552 TIP3_2552    0.417
13740 H2 16.325 9.201 -30.598 ho 2552 TIP3_2552    0.417
13741 OH2 18.353 9.354 -21.836 oh 2553 TIP3_2553   -0.834
13742 H1 17.518 9.223 -21.370 ho 2553 TIP3_2553    0.417
13743 H2 18.705 8.496 -21.920 ho 2553 TIP3_2553    0.417
13744 OH2 24.537 10.423 -25.850 oh 2554 TIP3_2554   -0.834
13745 H1 23.941 10.637 -25.143 ho 2554 TIP3_2554    0.417
13746 H2 24.207 10.966 -26.637 ho 2554 TIP3_2554    0.417
13747 OH2 14.527 1.045 -31.367 oh 2555 TIP3_2555   -0.834
13748 H1 13.938 0.260 -31.381 ho 2555 TIP3_2555    0.417
13749 H2 14.052 1.684 -31.897 ho 2555 TIP3_2555    0.417
13750 OH2 22.787 8.471 -32.100 oh 2556 TIP3_2556   -0.834
13751 H1 22.603 7.705 -31.528 ho 2556 TIP3_2556    0.417
13752 H2 23.338 8.989 -31.508 ho 2556 TIP3_2556    0.417
13753 OH2 6.616 14.099 -32.332 oh 2557 TIP3_2557   -0.834
13754 H1 5.929 13.497 -32.078 ho 2557 TIP3_2557    0.417
13755 H2 6.948 14.297 -31.435 ho 2557 TIP3_2557    0.417
13756 OH2 21.567 24.150 -30.057 oh 2558 TIP3_2558   -0.834
13757 H1 20.695 24.500 -29.782 ho 2558 TIP3_2558    0.417
13758 H2 22.020 23.787 -29.282 ho 2558 TIP3_2558    0.417
13759 OH2 11.938 7.388 -32.789 oh 2559 TIP3_2559   -0.834
13760 H1 11.351 7.372 -33.508 ho 2559 TIP3_2559    0.417
13761 H2 11.380 6.959 -32.054 ho 2559 TIP3_2559    0.417
13762 OH2 4.951 21.465 -24.302 oh 2560 TIP3_2560   -0.834
13763 H1 5.293 20.603 -23.877 ho 2560 TIP3_2560    0.417
13764 H2 4.016 21.379 -24.150 ho 2560 TIP3_2560    0.417
13765 OH2 16.758 7.932 -27.339 oh 2561 TIP3_2561   -0.834
13766 H1 16.954 7.534 -26.514 ho 2561 TIP3_2561    0.417
13767 H2 16.275 8.712 -27.109 ho 2561 TIP3_2561    0.417
13768 OH2 11.131 19.658 -35.138 oh 2562 TIP3_2562   -0.834
13769 H1 10.696 19.488 -35.966 ho 2562 TIP3_2562    0.417
13770 H2 11.828 18.921 -35.227 ho 2562 TIP3_2562    0.417
13771 OH2 7.231 5.996 -26.292 oh 2563 TIP3_2563   -0.834
13772 H1 6.331 6.344 -26.120 ho 2563 TIP3_2563    0.417
13773 H2 7.051 5.275 -26.944 ho 2563 TIP3_2563    0.417
13774 OH2 1.197 21.386 -34.059 oh 2564 TIP3_2564   -0.834
13775 H1 0.492 22.034 -33.929 ho 2564 TIP3_2564    0.417
13776 H2 1.215 20.989 -33.172 ho 2564 TIP3_2564    0.417
13777 OH2 15.435 13.584 -32.835 oh 2565 TIP3_2565   -0.834
13778 H1 14.578 13.844 -32.409 ho 2565 TIP3_2565    0.417
13779 H2 15.195 13.031 -33.582 ho 2565 TIP3_2565    0.417
13780 OH2 7.174 13.309 -35.121 oh 2566 TIP3_2566   -0.834
13781 H1 6.952 14.107 -35.632 ho 2566 TIP3_2566    0.417
13782 H2 7.026 13.641 -34.203 ho 2566 TIP3_2566    0.417
13783 OH2 3.834 4.646 -23.470 oh 2567 TIP3_2567   -0.834
13784 H1 3.945 4.168 -22.616 ho 2567 TIP3_2567    0.417
13785 H2 2.869 4.694 -23.620 ho 2567 TIP3_2567    0.417
13786 OH2 4.874 3.123 -21.393 oh 2568 TIP3_2568   -0.834
13787 H1 4.015 3.213 -20.949 ho 2568 TIP3_2568    0.417
13788 H2 5.498 3.465 -20.767 ho 2568 TIP3_2568    0.417
13789 OH2 14.704 16.196 -30.769 oh 2569 TIP3_2569   -0.834
13790 H1 14.199 16.560 -31.498 ho 2569 TIP3_2569    0.417
13791 H2 15.590 16.138 -31.178 ho 2569 TIP3_2569    0.417
13792 OH2 8.811 20.098 -33.490 oh 2570 TIP3_2570   -0.834
13793 H1 8.827 19.171 -33.230 ho 2570 TIP3_2570    0.417
13794 H2 9.602 20.191 -34.025 ho 2570 TIP3_2570    0.417
13795 OH2 0.815 5.983 -30.743 oh 2571 TIP3_2571   -0.834
13796 H1 1.628 6.032 -31.271 ho 2571 TIP3_2571    0.417
13797 H2 0.220 5.934 -31.527 ho 2571 TIP3_2571    0.417
13798 OH2 16.324 22.206 -32.363 oh 2572 TIP3_2572   -0.834
13799 H1 17.221 22.365 -32.539 ho 2572 TIP3_2572    0.417
13800 H2 15.950 22.278 -33.283 ho 2572 TIP3_2572    0.417
13801 OH2 5.918 1.815 -23.533 oh 2573 TIP3_2573   -0.834
13802 H1 6.359 1.038 -23.268 ho 2573 TIP3_2573    0.417
13803 H2 5.366 2.062 -22.724 ho 2573 TIP3_2573    0.417
13804 OH2 0.747 9.167 -36.239 oh 2574 TIP3_2574   -0.834
13805 H1 0.515 9.736 -37.052 ho 2574 TIP3_2574    0.417
13806 H2 -0.033 9.186 -35.602 ho 2574 TIP3_2574    0.417
13807 OH2 5.069 10.308 -37.921 oh 2575 TIP3_2575   -0.834
13808 H1 5.483 10.292 -38.754 ho 2575 TIP3_2575    0.417
13809 H2 4.513 9.548 -37.868 ho 2575 TIP3_2575    0.417
13810 OH2 20.901 15.257 -29.233 oh 2576 TIP3_2576   -0.834
13811 H1 20.136 15.740 -28.932 ho 2576 TIP3_2576    0.417
13812 H2 21.621 15.528 -28.625 ho 2576 TIP3_2576    0.417
13813 OH2 4.295 21.070 -32.468 oh 2577 TIP3_2577   -0.834
13814 H1 5.056 21.614 -32.564 ho 2577 TIP3_2577    0.417
13815 H2 4.463 20.423 -33.156 ho 2577 TIP3_2577    0.417
13816 OH2 7.361 11.430 -23.441 oh 2578 TIP3_2578   -0.834
13817 H1 6.788 11.299 -22.730 ho 2578 TIP3_2578    0.417
13818 H2 6.832 11.094 -24.210 ho 2578 TIP3_2578    0.417
13819 OH2 20.279 17.961 -33.025 oh 2579 TIP3_2579   -0.834
13820 H1 19.941 17.441 -32.254 ho 2579 TIP3_2579    0.417
13821 H2 20.115 18.912 -32.652 ho 2579 TIP3_2579    0.417
13822 OH2 9.961 13.217 -35.090 oh 2580 TIP3_2580   -0.834
13823 H1 10.628 13.919 -35.326 ho 2580 TIP3_2580    0.417
13824 H2 9.123 13.595 -35.436 ho 2580 TIP3_2580    0.417
13825 OH2 16.172 11.099 -28.736 oh 2581 TIP3_2581   -0.834
13826 H1 15.627 10.291 -28.930 ho 2581 TIP3_2581    0.417
13827 H2 15.540 11.640 -28.237 ho 2581 TIP3_2581    0.417
13828 OH2 13.949 4.719 -39.076 oh 2582 TIP3_2582   -0.834
13829 H1 14.477 4.290 -39.783 ho 2582 TIP3_2582    0.417
13830 H2 14.699 5.048 -38.388 ho 2582 TIP3_2582    0.417
13831 OH2 22.358 10.568 -37.545 oh 2583 TIP3_2583   -0.834
13832 H1 21.753 11.260 -37.882 ho 2583 TIP3_2583    0.417
13833 H2 22.746 11.036 -36.724 ho 2583 TIP3_2583    0.417
13834 OH2 6.906 9.524 -31.130 oh 2584 TIP3_2584   -0.834
13835 H1 6.644 10.279 -30.636 ho 2584 TIP3_2584    0.417
13836 H2 7.499 9.976 -31.759 ho 2584 TIP3_2584    0.417
13837 OH2 9.951 4.246 -38.216 oh 2585 TIP3_2585   -0.834
13838 H1 10.492 4.897 -38.603 ho 2585 TIP3_2585    0.417
13839 H2 9.064 4.568 -38.502 ho 2585 TIP3_2585    0.417
13840 OH2 18.962 16.682 -28.051 oh 2586 TIP3_2586   -0.834
13841 H1 18.967 16.777 -27.076 ho 2586 TIP3_2586    0.417
13842 H2 18.018 16.811 -28.315 ho 2586 TIP3_2586    0.417
13843 OH2 21.997 22.901 -32.435 oh 2587 TIP3_2587   -0.834
13844 H1 21.909 23.670 -31.772 ho 2587 TIP3_2587    0.417
13845 H2 22.389 22.174 -31.888 ho 2587 TIP3_2587    0.417
13846 OH2 -0.300 8.170 -29.255 oh 2588 TIP3_2588   -0.834
13847 H1 0.184 7.434 -29.631 ho 2588 TIP3_2588    0.417
13848 H2 0.355 8.588 -28.658 ho 2588 TIP3_2588    0.417
13849 OH2 14.804 20.250 -36.352 oh 2589 TIP3_2589   -0.834
13850 H1 14.391 20.904 -35.819 ho 2589 TIP3_2589    0.417
13851 H2 15.039 20.779 -37.137 ho 2589 TIP3_2589    0.417
13852 OH2 12.448 24.174 -34.336 oh 2590 TIP3_2590   -0.834
13853 H1 12.892 24.677 -35.071 ho 2590 TIP3_2590    0.417
13854 H2 11.578 24.402 -34.479 ho 2590 TIP3_2590    0.417
13855 OH2 23.315 4.205 -21.048 oh 2591 TIP3_2591   -0.834
13856 H1 23.174 3.659 -21.813 ho 2591 TIP3_2591    0.417
13857 H2 22.666 3.930 -20.393 ho 2591 TIP3_2591    0.417
13858 OH2 18.819 20.193 -21.622 oh 2592 TIP3_2592   -0.834
13859 H1 18.717 21.035 -21.226 ho 2592 TIP3_2592    0.417
13860 H2 19.791 20.109 -21.600 ho 2592 TIP3_2592    0.417
13861 OH2 13.795 14.215 -29.145 oh 2593 TIP3_2593   -0.834
13862 H1 14.201 14.840 -29.737 ho 2593 TIP3_2593    0.417
13863 H2 13.593 13.469 -29.736 ho 2593 TIP3_2593    0.417
13864 OH2 10.900 11.217 -29.230 oh 2594 TIP3_2594   -0.834
13865 H1 10.441 10.887 -28.458 ho 2594 TIP3_2594    0.417
13866 H2 10.819 10.482 -29.883 ho 2594 TIP3_2594    0.417
13867 OH2 3.314 6.034 -33.488 oh 2595 TIP3_2595   -0.834
13868 H1 3.977 5.813 -32.830 ho 2595 TIP3_2595    0.417
13869 H2 2.711 5.233 -33.413 ho 2595 TIP3_2595    0.417
13870 OH2 20.282 2.297 -39.127 oh 2596 TIP3_2596   -0.834
13871 H1 20.889 2.442 -39.939 ho 2596 TIP3_2596    0.417
13872 H2 19.429 2.639 -39.411 ho 2596 TIP3_2596    0.417
13873 OH2 16.583 19.844 -39.575 oh 2597 TIP3_2597   -0.834
13874 H1 16.404 19.029 -39.136 ho 2597 TIP3_2597    0.417
13875 H2 16.074 20.440 -39.088 ho 2597 TIP3_2597    0.417
13876 OH2 19.346 7.312 -28.061 oh 2598 TIP3_2598   -0.834
13877 H1 18.408 7.598 -28.012 ho 2598 TIP3_2598    0.417
13878 H2 19.277 6.345 -28.125 ho 2598 TIP3_2598    0.417
13879 OH2 23.917 17.258 -28.877 oh 2599 TIP3_2599   -0.834
13880 H1 24.441 17.372 -29.633 ho 2599 TIP3_2599    0.417
13881 H2 24.559 17.558 -28.168 ho 2599 TIP3_2599    0.417
13882 OH2 18.009 42.264 -39.692 oh 2600 TIP3_2600   -0.834
13883 H1 17.214 42.780 -39.586 ho 2600 TIP3_2600    0.417
13884 H2 17.767 41.438 -39.224 ho 2600 TIP3_2600    0.417
13885 OH2 18.536 56.677 -24.842 oh 2601 TIP3_2601   -0.834
13886 H1 19.171 57.353 -24.471 ho 2601 TIP3_2601    0.417
13887 H2 17.906 56.561 -24.085 ho 2601 TIP3_2601    0.417
13888 OH2 4.572 49.909 -21.184 oh 2602 TIP3_2602   -0.834
13889 H1 5.207 50.395 -20.688 ho 2602 TIP3_2602    0.417
13890 H2 5.024 49.065 -21.256 ho 2602 TIP3_2602    0.417
13891 OH2 8.812 54.049 -28.862 oh 2603 TIP3_2603   -0.834
13892 H1 8.368 53.234 -29.056 ho 2603 TIP3_2603    0.417
13893 H2 9.731 53.861 -29.092 ho 2603 TIP3_2603    0.417
13894 OH2 19.757 49.641 -23.942 oh 2604 TIP3_2604   -0.834
13895 H1 19.521 50.601 -23.938 ho 2604 TIP3_2604    0.417
13896 H2 20.582 49.761 -23.511 ho 2604 TIP3_2604    0.417
13897 OH2 3.638 30.098 -20.868 oh 2605 TIP3_2605   -0.834
13898 H1 3.603 29.838 -21.789 ho 2605 TIP3_2605    0.417
13899 H2 2.854 30.648 -20.783 ho 2605 TIP3_2605    0.417
13900 OH2 20.669 30.537 -28.732 oh 2606 TIP3_2606   -0.834
13901 H1 20.855 29.631 -29.030 ho 2606 TIP3_2606    0.417
13902 H2 20.089 30.792 -29.426 ho 2606 TIP3_2606    0.417
13903 OH2 15.876 34.320 -37.151 oh 2607 TIP3_2607   -0.834
13904 H1 15.908 34.270 -38.095 ho 2607 TIP3_2607    0.417
13905 H2 15.011 34.580 -36.942 ho 2607 TIP3_2607    0.417
13906 OH2 16.693 51.664 -36.293 oh 2608 TIP3_2608   -0.834
13907 H1 15.850 51.311 -36.698 ho 2608 TIP3_2608    0.417
13908 H2 17.330 51.065 -36.790 ho 2608 TIP3_2608    0.417
13909 OH2 23.052 40.939 -30.616 oh 2609 TIP3_2609   -0.834
13910 H1 23.540 41.427 -31.328 ho 2609 TIP3_2609    0.417
13911 H2 23.736 40.968 -29.887 ho 2609 TIP3_2609    0.417
13912 OH2 21.464 45.321 -24.372 oh 2610 TIP3_2610   -0.834
13913 H1 22.383 45.099 -24.108 ho 2610 TIP3_2610    0.417
13914 H2 21.632 45.650 -25.290 ho 2610 TIP3_2610    0.417
13915 OH2 6.408 52.285 -30.340 oh 2611 TIP3_2611   -0.834
13916 H1 6.908 51.745 -29.809 ho 2611 TIP3_2611    0.417
13917 H2 5.631 52.638 -29.829 ho 2611 TIP3_2611    0.417
13918 OH2 7.713 51.595 -37.591 oh 2612 TIP3_2612   -0.834
13919 H1 8.443 51.598 -38.204 ho 2612 TIP3_2612    0.417
13920 H2 7.159 50.868 -37.831 ho 2612 TIP3_2612    0.417
13921 OH2 9.296 33.464 -29.788 oh 2613 TIP3_2613   -0.834
13922 H1 8.560 33.075 -30.346 ho 2613 TIP3_2613    0.417
13923 H2 9.266 32.909 -28.966 ho 2613 TIP3_2613    0.417
13924 OH2 11.284 38.168 -30.052 oh 2614 TIP3_2614   -0.834
13925 H1 11.271 37.288 -29.561 ho 2614 TIP3_2614    0.417
13926 H2 10.534 38.050 -30.703 ho 2614 TIP3_2614    0.417
13927 OH2 0.926 54.198 -23.389 oh 2615 TIP3_2615   -0.834
13928 H1 0.471 53.950 -22.552 ho 2615 TIP3_2615    0.417
13929 H2 1.067 53.349 -23.828 ho 2615 TIP3_2615    0.417
13930 OH2 13.769 29.302 -24.759 oh 2616 TIP3_2616   -0.834
13931 H1 14.640 29.519 -24.423 ho 2616 TIP3_2616    0.417
13932 H2 13.425 30.113 -25.162 ho 2616 TIP3_2616    0.417
13933 OH2 10.030 35.047 -39.026 oh 2617 TIP3_2617   -0.834
13934 H1 10.212 35.118 -38.080 ho 2617 TIP3_2617    0.417
13935 H2 9.099 34.790 -39.053 ho 2617 TIP3_2617    0.417
13936 OH2 7.370 44.003 -38.176 oh 2618 TIP3_2618   -0.834
13937 H1 7.660 43.773 -39.123 ho 2618 TIP3_2618    0.417
13938 H2 6.974 44.909 -38.275 ho 2618 TIP3_2618    0.417
13939 OH2 15.114 32.381 -23.185 oh 2619 TIP3_2619   -0.834
13940 H1 14.199 32.290 -22.785 ho 2619 TIP3_2619    0.417
13941 H2 15.553 31.500 -23.054 ho 2619 TIP3_2619    0.417
13942 OH2 5.201 53.396 -25.748 oh 2620 TIP3_2620   -0.834
13943 H1 4.790 54.206 -25.358 ho 2620 TIP3_2620    0.417
13944 H2 5.307 52.838 -24.965 ho 2620 TIP3_2620    0.417
13945 OH2 18.422 49.462 -27.782 oh 2621 TIP3_2621   -0.834
13946 H1 19.342 49.448 -27.645 ho 2621 TIP3_2621    0.417
13947 H2 18.279 48.690 -28.372 ho 2621 TIP3_2621    0.417
13948 OH2 8.776 49.452 -34.397 oh 2622 TIP3_2622   -0.834
13949 H1 9.121 49.657 -35.315 ho 2622 TIP3_2622    0.417
13950 H2 8.743 50.307 -33.945 ho 2622 TIP3_2622    0.417
13951 OH2 14.728 44.086 -32.094 oh 2623 TIP3_2623   -0.834
13952 H1 15.556 44.365 -32.582 ho 2623 TIP3_2623    0.417
13953 H2 14.798 43.125 -32.115 ho 2623 TIP3_2623    0.417
13954 OH2 19.308 46.684 -36.973 oh 2624 TIP3_2624   -0.834
13955 H1 18.773 46.843 -37.718 ho 2624 TIP3_2624    0.417
13956 H2 19.486 47.580 -36.690 ho 2624 TIP3_2624    0.417
13957 OH2 8.084 33.762 -25.690 oh 2625 TIP3_2625   -0.834
13958 H1 7.733 34.544 -25.249 ho 2625 TIP3_2625    0.417
13959 H2 7.272 33.257 -25.877 ho 2625 TIP3_2625    0.417
13960 OH2 9.612 47.300 -32.985 oh 2626 TIP3_2626   -0.834
13961 H1 9.494 46.817 -33.831 ho 2626 TIP3_2626    0.417
13962 H2 9.500 48.235 -33.236 ho 2626 TIP3_2626    0.417
13963 OH2 23.054 28.222 -33.177 oh 2627 TIP3_2627   -0.834
13964 H1 23.373 29.153 -33.318 ho 2627 TIP3_2627    0.417
13965 H2 23.381 27.961 -32.341 ho 2627 TIP3_2627    0.417
13966 OH2 15.496 53.118 -34.397 oh 2628 TIP3_2628   -0.834
13967 H1 15.856 52.526 -35.118 ho 2628 TIP3_2628    0.417
13968 H2 16.304 53.314 -33.852 ho 2628 TIP3_2628    0.417
13969 OH2 21.527 33.083 -28.031 oh 2629 TIP3_2629   -0.834
13970 H1 21.251 32.138 -28.202 ho 2629 TIP3_2629    0.417
13971 H2 20.730 33.603 -28.278 ho 2629 TIP3_2629    0.417
13972 OH2 11.903 48.552 -36.985 oh 2630 TIP3_2630   -0.834
13973 H1 12.054 48.149 -36.144 ho 2630 TIP3_2630    0.417
13974 H2 11.843 49.518 -36.796 ho 2630 TIP3_2630    0.417
13975 OH2 15.660 41.659 -37.391 oh 2631 TIP3_2631   -0.834
13976 H1 15.706 42.441 -37.850 ho 2631 TIP3_2631    0.417
13977 H2 15.427 41.971 -36.499 ho 2631 TIP3_2631    0.417
13978 OH2 5.789 49.157 -27.751 oh 2632 TIP3_2632   -0.834
13979 H1 5.760 49.783 -26.986 ho 2632 TIP3_2632    0.417
13980 H2 6.472 48.574 -27.415 ho 2632 TIP3_2632    0.417
13981 OH2 4.773 34.625 -30.236 oh 2633 TIP3_2633   -0.834
13982 H1 4.262 34.254 -29.526 ho 2633 TIP3_2633    0.417
13983 H2 4.260 35.441 -30.423 ho 2633 TIP3_2633    0.417
13984 OH2 11.949 34.151 -27.430 oh 2634 TIP3_2634   -0.834
13985 H1 12.451 34.134 -28.263 ho 2634 TIP3_2634    0.417
13986 H2 11.438 33.307 -27.510 ho 2634 TIP3_2634    0.417
13987 OH2 14.043 45.480 -35.906 oh 2635 TIP3_2635   -0.834
13988 H1 14.347 44.572 -35.843 ho 2635 TIP3_2635    0.417
13989 H2 14.763 45.868 -36.339 ho 2635 TIP3_2635    0.417
13990 OH2 5.874 26.066 -29.095 oh 2636 TIP3_2636   -0.834
13991 H1 5.395 25.217 -28.954 ho 2636 TIP3_2636    0.417
13992 H2 5.290 26.545 -29.664 ho 2636 TIP3_2636    0.417
13993 OH2 11.855 28.450 -35.932 oh 2637 TIP3_2637   -0.834
13994 H1 11.377 27.873 -36.496 ho 2637 TIP3_2637    0.417
13995 H2 12.457 28.848 -36.610 ho 2637 TIP3_2637    0.417
13996 OH2 10.922 53.590 -35.299 oh 2638 TIP3_2638   -0.834
13997 H1 10.174 53.530 -35.914 ho 2638 TIP3_2638    0.417
13998 H2 11.526 54.316 -35.654 ho 2638 TIP3_2638    0.417
13999 OH2 19.622 30.060 -26.104 oh 2639 TIP3_2639   -0.834
14000 H1 19.779 30.353 -27.001 ho 2639 TIP3_2639    0.417
14001 H2 20.286 30.537 -25.593 ho 2639 TIP3_2639    0.417
14002 OH2 24.099 47.420 -39.055 oh 2640 TIP3_2640   -0.834
14003 H1 23.180 47.100 -39.178 ho 2640 TIP3_2640    0.417
14004 H2 24.606 46.601 -39.234 ho 2640 TIP3_2640    0.417
14005 OH2 22.262 56.754 -30.030 oh 2641 TIP3_2641   -0.834
14006 H1 22.651 56.562 -29.179 ho 2641 TIP3_2641    0.417
14007 H2 22.228 55.938 -30.416 ho 2641 TIP3_2641    0.417
14008 OH2 18.723 27.332 -38.879 oh 2642 TIP3_2642   -0.834
14009 H1 19.619 27.427 -38.653 ho 2642 TIP3_2642    0.417
14010 H2 18.330 27.975 -38.366 ho 2642 TIP3_2642    0.417
14011 OH2 0.540 55.998 -36.668 oh 2643 TIP3_2643   -0.834
14012 H1 0.672 56.950 -36.477 ho 2643 TIP3_2643    0.417
14013 H2 1.411 55.658 -36.461 ho 2643 TIP3_2643    0.417
14014 OH2 6.374 45.383 -34.397 oh 2644 TIP3_2644   -0.834
14015 H1 5.606 45.894 -34.264 ho 2644 TIP3_2644    0.417
14016 H2 6.018 44.696 -35.045 ho 2644 TIP3_2644    0.417
14017 OH2 3.903 57.212 -21.010 oh 2645 TIP3_2645   -0.834
14018 H1 3.815 56.966 -21.916 ho 2645 TIP3_2645    0.417
14019 H2 3.006 57.124 -20.704 ho 2645 TIP3_2645    0.417
14020 OH2 16.686 39.821 -29.839 oh 2646 TIP3_2646   -0.834
14021 H1 16.847 40.136 -28.909 ho 2646 TIP3_2646    0.417
14022 H2 15.774 39.480 -29.762 ho 2646 TIP3_2646    0.417
14023 OH2 21.704 55.815 -38.028 oh 2647 TIP3_2647   -0.834
14024 H1 22.303 56.464 -38.318 ho 2647 TIP3_2647    0.417
14025 H2 21.326 55.524 -38.870 ho 2647 TIP3_2647    0.417
14026 OH2 11.512 32.362 -34.642 oh 2648 TIP3_2648   -0.834
14027 H1 12.156 32.224 -35.412 ho 2648 TIP3_2648    0.417
14028 H2 11.664 31.646 -34.037 ho 2648 TIP3_2648    0.417
14029 OH2 16.761 27.778 -35.693 oh 2649 TIP3_2649   -0.834
14030 H1 17.032 27.482 -36.543 ho 2649 TIP3_2649    0.417
14031 H2 17.008 27.064 -35.082 ho 2649 TIP3_2649    0.417
14032 OH2 3.603 50.046 -31.244 oh 2650 TIP3_2650   -0.834
14033 H1 3.196 50.721 -30.650 ho 2650 TIP3_2650    0.417
14034 H2 3.345 50.319 -32.104 ho 2650 TIP3_2650    0.417
14035 OH2 16.551 35.805 -27.289 oh 2651 TIP3_2651   -0.834
14036 H1 16.201 36.461 -26.616 ho 2651 TIP3_2651    0.417
14037 H2 17.194 35.336 -26.771 ho 2651 TIP3_2651    0.417
14038 OH2 1.318 31.025 -32.652 oh 2652 TIP3_2652   -0.834
14039 H1 1.091 30.362 -32.062 ho 2652 TIP3_2652    0.417
14040 H2 0.538 31.166 -33.227 ho 2652 TIP3_2652    0.417
14041 OH2 23.395 37.051 -24.200 oh 2653 TIP3_2653   -0.834
14042 H1 23.369 36.946 -25.124 ho 2653 TIP3_2653    0.417
14043 H2 23.145 38.030 -24.084 ho 2653 TIP3_2653    0.417
14044 OH2 22.531 28.901 -36.832 oh 2654 TIP3_2654   -0.834
14045 H1 22.663 28.044 -36.330 ho 2654 TIP3_2654    0.417
14046 H2 23.469 29.283 -36.928 ho 2654 TIP3_2654    0.417
14047 OH2 2.212 30.551 -38.038 oh 2655 TIP3_2655   -0.834
14048 H1 1.802 30.120 -37.376 ho 2655 TIP3_2655    0.417
14049 H2 2.823 31.116 -37.577 ho 2655 TIP3_2655    0.417
14050 OH2 4.708 40.285 -29.528 oh 2656 TIP3_2656   -0.834
14051 H1 4.576 40.492 -28.567 ho 2656 TIP3_2656    0.417
14052 H2 5.628 40.514 -29.646 ho 2656 TIP3_2656    0.417
14053 OH2 3.012 30.566 -30.411 oh 2657 TIP3_2657   -0.834
14054 H1 3.394 29.688 -30.312 ho 2657 TIP3_2657    0.417
14055 H2 3.330 30.848 -31.287 ho 2657 TIP3_2657    0.417
14056 OH2 17.938 42.460 -32.960 oh 2658 TIP3_2658   -0.834
14057 H1 18.443 41.826 -33.447 ho 2658 TIP3_2658    0.417
14058 H2 17.932 43.144 -33.588 ho 2658 TIP3_2658    0.417
14059 OH2 11.051 56.403 -23.424 oh 2659 TIP3_2659   -0.834
14060 H1 11.273 56.416 -24.349 ho 2659 TIP3_2659    0.417
14061 H2 11.095 55.464 -23.224 ho 2659 TIP3_2659    0.417
14062 OH2 10.796 47.236 -30.640 oh 2660 TIP3_2660   -0.834
14063 H1 10.374 47.018 -31.509 ho 2660 TIP3_2660    0.417
14064 H2 11.534 47.827 -30.902 ho 2660 TIP3_2660    0.417
14065 OH2 9.510 38.706 -34.442 oh 2661 TIP3_2661   -0.834
14066 H1 9.762 38.784 -35.357 ho 2661 TIP3_2661    0.417
14067 H2 9.115 37.782 -34.395 ho 2661 TIP3_2661    0.417
14068 OH2 1.929 27.942 -28.449 oh 2662 TIP3_2662   -0.834
14069 H1 2.470 27.331 -28.955 ho 2662 TIP3_2662    0.417
14070 H2 1.250 27.368 -28.048 ho 2662 TIP3_2662    0.417
14071 OH2 9.087 28.192 -24.614 oh 2663 TIP3_2663   -0.834
14072 H1 9.562 28.136 -25.446 ho 2663 TIP3_2663    0.417
14073 H2 8.131 28.186 -24.979 ho 2663 TIP3_2663    0.417
14074 OH2 8.724 51.470 -28.627 oh 2664 TIP3_2664   -0.834
14075 H1 8.880 50.569 -28.976 ho 2664 TIP3_2664    0.417
14076 H2 8.190 51.279 -27.832 ho 2664 TIP3_2664    0.417
14077 OH2 18.618 46.372 -28.561 oh 2665 TIP3_2665   -0.834
14078 H1 17.723 46.361 -28.863 ho 2665 TIP3_2665    0.417
14079 H2 18.582 46.354 -27.546 ho 2665 TIP3_2665    0.417
14080 OH2 7.368 33.770 -39.060 oh 2666 TIP3_2666   -0.834
14081 H1 6.494 34.029 -38.862 ho 2666 TIP3_2666    0.417
14082 H2 7.306 33.093 -39.814 ho 2666 TIP3_2666    0.417
14083 OH2 4.248 40.086 -37.871 oh 2667 TIP3_2667   -0.834
14084 H1 3.830 39.319 -37.466 ho 2667 TIP3_2667    0.417
14085 H2 4.093 40.833 -37.226 ho 2667 TIP3_2667    0.417
14086 OH2 20.873 35.602 -25.228 oh 2668 TIP3_2668   -0.834
14087 H1 20.997 36.513 -25.052 ho 2668 TIP3_2668    0.417
14088 H2 21.653 35.335 -25.735 ho 2668 TIP3_2668    0.417
14089 OH2 8.936 26.830 -22.122 oh 2669 TIP3_2669   -0.834
14090 H1 8.988 27.428 -22.901 ho 2669 TIP3_2669    0.417
14091 H2 8.180 26.198 -22.269 ho 2669 TIP3_2669    0.417
14092 OH2 20.421 40.396 -31.305 oh 2670 TIP3_2670   -0.834
14093 H1 21.426 40.515 -31.311 ho 2670 TIP3_2670    0.417
14094 H2 20.172 40.791 -30.471 ho 2670 TIP3_2670    0.417
14095 OH2 14.925 34.863 -39.866 oh 2671 TIP3_2671   -0.834
14096 H1 14.934 35.810 -39.832 ho 2671 TIP3_2671    0.417
14097 H2 13.975 34.584 -39.797 ho 2671 TIP3_2671    0.417
14098 OH2 1.162 34.527 -29.944 oh 2672 TIP3_2672   -0.834
14099 H1 0.979 33.633 -29.666 ho 2672 TIP3_2672    0.417
14100 H2 0.294 35.023 -29.718 ho 2672 TIP3_2672    0.417
14101 OH2 3.064 41.948 -31.241 oh 2673 TIP3_2673   -0.834
14102 H1 3.687 41.682 -30.573 ho 2673 TIP3_2673    0.417
14103 H2 3.126 41.257 -31.911 ho 2673 TIP3_2673    0.417
14104 OH2 23.099 36.503 -26.857 oh 2674 TIP3_2674   -0.834
14105 H1 23.120 37.285 -27.447 ho 2674 TIP3_2674    0.417
14106 H2 23.742 35.862 -27.207 ho 2674 TIP3_2674    0.417
14107 OH2 14.632 42.644 -35.030 oh 2675 TIP3_2675   -0.834
14108 H1 15.015 42.372 -34.212 ho 2675 TIP3_2675    0.417
14109 H2 13.671 42.869 -34.802 ho 2675 TIP3_2675    0.417
14110 OH2 18.871 54.531 -28.789 oh 2676 TIP3_2676   -0.834
14111 H1 19.332 54.453 -27.905 ho 2676 TIP3_2676    0.417
14112 H2 18.176 53.785 -28.658 ho 2676 TIP3_2676    0.417
14113 OH2 18.680 34.944 -39.372 oh 2677 TIP3_2677   -0.834
14114 H1 18.177 34.231 -39.681 ho 2677 TIP3_2677    0.417
14115 H2 18.964 34.576 -38.483 ho 2677 TIP3_2677    0.417
14116 OH2 7.013 37.819 -38.277 oh 2678 TIP3_2678   -0.834
14117 H1 7.460 38.520 -37.745 ho 2678 TIP3_2678    0.417
14118 H2 6.701 37.177 -37.646 ho 2678 TIP3_2678    0.417
14119 OH2 2.117 38.404 -32.875 oh 2679 TIP3_2679   -0.834
14120 H1 2.014 38.342 -31.921 ho 2679 TIP3_2679    0.417
14121 H2 2.894 37.873 -33.063 ho 2679 TIP3_2679    0.417
14122 OH2 3.780 51.524 -37.444 oh 2680 TIP3_2680   -0.834
14123 H1 4.484 52.192 -37.481 ho 2680 TIP3_2680    0.417
14124 H2 3.952 51.125 -36.582 ho 2680 TIP3_2680    0.417
14125 OH2 12.616 47.220 -34.417 oh 2681 TIP3_2681   -0.834
14126 H1 13.165 46.700 -34.918 ho 2681 TIP3_2681    0.417
14127 H2 11.925 46.607 -34.167 ho 2681 TIP3_2681    0.417
14128 OH2 0.350 49.745 -26.566 oh 2682 TIP3_2682   -0.834
14129 H1 1.202 49.228 -26.613 ho 2682 TIP3_2682    0.417
14130 H2 0.022 49.517 -25.689 ho 2682 TIP3_2682    0.417
14131 OH2 14.562 40.021 -26.934 oh 2683 TIP3_2683   -0.834
14132 H1 14.425 40.460 -26.075 ho 2683 TIP3_2683    0.417
14133 H2 15.471 40.312 -27.141 ho 2683 TIP3_2683    0.417
14134 OH2 12.415 53.449 -20.750 oh 2684 TIP3_2684   -0.834
14135 H1 11.432 53.260 -20.793 ho 2684 TIP3_2684    0.417
14136 H2 12.695 53.409 -21.641 ho 2684 TIP3_2684    0.417
14137 OH2 14.400 39.405 -36.341 oh 2685 TIP3_2685   -0.834
14138 H1 14.798 40.307 -36.176 ho 2685 TIP3_2685    0.417
14139 H2 15.078 38.901 -35.897 ho 2685 TIP3_2685    0.417
14140 OH2 4.655 33.672 -38.476 oh 2686 TIP3_2686   -0.834
14141 H1 4.762 33.627 -37.509 ho 2686 TIP3_2686    0.417
14142 H2 4.214 34.511 -38.681 ho 2686 TIP3_2686    0.417
14143 OH2 23.520 30.726 -28.483 oh 2687 TIP3_2687   -0.834
14144 H1 23.791 31.644 -28.057 ho 2687 TIP3_2687    0.417
14145 H2 22.582 30.576 -28.293 ho 2687 TIP3_2687    0.417
14146 OH2 6.683 41.800 -26.633 oh 2688 TIP3_2688   -0.834
14147 H1 7.318 42.380 -26.224 ho 2688 TIP3_2688    0.417
14148 H2 6.964 41.758 -27.618 ho 2688 TIP3_2688    0.417
14149 OH2 7.725 41.948 -32.017 oh 2689 TIP3_2689   -0.834
14150 H1 8.444 41.302 -32.046 ho 2689 TIP3_2689    0.417
14151 H2 8.212 42.808 -32.134 ho 2689 TIP3_2689    0.417
14152 OH2 18.137 43.655 -27.796 oh 2690 TIP3_2690   -0.834
14153 H1 18.161 43.834 -28.811 ho 2690 TIP3_2690    0.417
14154 H2 18.200 44.495 -27.412 ho 2690 TIP3_2690    0.417
14155 OH2 9.212 53.724 -25.348 oh 2691 TIP3_2691   -0.834
14156 H1 10.073 53.458 -25.841 ho 2691 TIP3_2691    0.417
14157 H2 8.910 54.428 -25.910 ho 2691 TIP3_2691    0.417
14158 OH2 21.749 51.837 -25.802 oh 2692 TIP3_2692   -0.834
14159 H1 20.874 52.095 -26.142 ho 2692 TIP3_2692    0.417
14160 H2 22.348 52.146 -26.540 ho 2692 TIP3_2692    0.417
14161 OH2 10.828 50.902 -23.040 oh 2693 TIP3_2693   -0.834
14162 H1 11.702 50.575 -22.835 ho 2693 TIP3_2693    0.417
14163 H2 10.627 50.529 -23.991 ho 2693 TIP3_2693    0.417
14164 OH2 14.421 26.187 -23.561 oh 2694 TIP3_2694   -0.834
14165 H1 14.141 26.496 -24.484 ho 2694 TIP3_2694    0.417
14166 H2 14.100 26.928 -23.044 ho 2694 TIP3_2694    0.417
14167 OH2 21.185 37.177 -29.057 oh 2695 TIP3_2695   -0.834
14168 H1 20.835 38.006 -29.085 ho 2695 TIP3_2695    0.417
14169 H2 20.596 36.702 -28.396 ho 2695 TIP3_2695    0.417
14170 OH2 14.964 47.475 -32.557 oh 2696 TIP3_2696   -0.834
14171 H1 14.140 47.317 -33.022 ho 2696 TIP3_2696    0.417
14172 H2 15.279 46.598 -32.225 ho 2696 TIP3_2696    0.417
14173 OH2 9.485 44.354 -32.162 oh 2697 TIP3_2697   -0.834
14174 H1 10.335 43.869 -31.960 ho 2697 TIP3_2697    0.417
14175 H2 9.813 45.175 -32.584 ho 2697 TIP3_2697    0.417
14176 OH2 19.163 52.934 -35.245 oh 2698 TIP3_2698   -0.834
14177 H1 18.497 52.575 -35.924 ho 2698 TIP3_2698    0.417
14178 H2 19.067 53.927 -35.236 ho 2698 TIP3_2698    0.417
14179 OH2 13.511 27.046 -34.452 oh 2699 TIP3_2699   -0.834
14180 H1 12.889 27.581 -34.932 ho 2699 TIP3_2699    0.417
14181 H2 12.999 26.768 -33.736 ho 2699 TIP3_2699    0.417
14182 OH2 17.161 51.152 -30.912 oh 2700 TIP3_2700   -0.834
14183 H1 16.140 51.312 -30.896 ho 2700 TIP3_2700    0.417
14184 H2 17.510 51.708 -31.639 ho 2700 TIP3_2700    0.417
14185 OH2 6.495 45.117 -31.470 oh 2701 TIP3_2701   -0.834
14186 H1 6.284 45.364 -32.364 ho 2701 TIP3_2701    0.417
14187 H2 7.453 45.257 -31.456 ho 2701 TIP3_2701    0.417
14188 OH2 4.677 33.754 -35.552 oh 2702 TIP3_2702   -0.834
14189 H1 4.019 34.426 -35.342 ho 2702 TIP3_2702    0.417
14190 H2 4.888 33.393 -34.699 ho 2702 TIP3_2702    0.417
14191 OH2 9.408 37.523 -26.332 oh 2703 TIP3_2703   -0.834
14192 H1 9.017 38.311 -26.042 ho 2703 TIP3_2703    0.417
14193 H2 10.307 37.880 -26.630 ho 2703 TIP3_2703    0.417
14194 OH2 20.805 44.479 -35.465 oh 2704 TIP3_2704   -0.834
14195 H1 20.581 43.552 -35.638 ho 2704 TIP3_2704    0.417
14196 H2 20.065 44.931 -35.923 ho 2704 TIP3_2704    0.417
14197 OH2 4.353 42.007 -23.791 oh 2705 TIP3_2705   -0.834
14198 H1 4.824 42.858 -23.986 ho 2705 TIP3_2705    0.417
14199 H2 3.983 42.124 -22.909 ho 2705 TIP3_2705    0.417
14200 OH2 6.135 47.229 -21.321 oh 2706 TIP3_2706   -0.834
14201 H1 6.278 46.353 -21.767 ho 2706 TIP3_2706    0.417
14202 H2 7.011 47.599 -21.355 ho 2706 TIP3_2706    0.417
14203 OH2 11.637 28.962 -26.827 oh 2707 TIP3_2707   -0.834
14204 H1 12.082 29.750 -26.454 ho 2707 TIP3_2707    0.417
14205 H2 12.123 28.912 -27.717 ho 2707 TIP3_2707    0.417
14206 OH2 19.320 39.976 -34.150 oh 2708 TIP3_2708   -0.834
14207 H1 19.805 39.526 -34.877 ho 2708 TIP3_2708    0.417
14208 H2 19.880 39.941 -33.392 ho 2708 TIP3_2708    0.417
14209 OH2 20.817 42.447 -38.797 oh 2709 TIP3_2709   -0.834
14210 H1 20.985 41.641 -39.289 ho 2709 TIP3_2709    0.417
14211 H2 19.894 42.633 -38.832 ho 2709 TIP3_2709    0.417
14212 OH2 4.133 41.246 -27.115 oh 2710 TIP3_2710   -0.834
14213 H1 4.997 41.426 -26.746 ho 2710 TIP3_2710    0.417
14214 H2 3.558 41.819 -26.645 ho 2710 TIP3_2710    0.417
14215 OH2 23.900 49.191 -33.785 oh 2711 TIP3_2711   -0.834
14216 H1 24.797 49.348 -34.037 ho 2711 TIP3_2711    0.417
14217 H2 23.912 48.287 -33.349 ho 2711 TIP3_2711    0.417
14218 OH2 19.103 55.304 -31.644 oh 2712 TIP3_2712   -0.834
14219 H1 18.739 55.358 -30.753 ho 2712 TIP3_2712    0.417
14220 H2 19.649 56.059 -31.720 ho 2712 TIP3_2712    0.417
14221 OH2 2.308 35.641 -27.457 oh 2713 TIP3_2713   -0.834
14222 H1 2.329 35.284 -28.400 ho 2713 TIP3_2713    0.417
14223 H2 2.336 36.597 -27.626 ho 2713 TIP3_2713    0.417
14224 OH2 3.010 48.657 -26.705 oh 2714 TIP3_2714   -0.834
14225 H1 3.334 48.472 -25.800 ho 2714 TIP3_2714    0.417
14226 H2 3.782 48.742 -27.168 ho 2714 TIP3_2714    0.417
14227 OH2 20.211 30.328 -36.255 oh 2715 TIP3_2715   -0.834
14228 H1 20.015 29.994 -35.365 ho 2715 TIP3_2715    0.417
14229 H2 20.796 29.600 -36.575 ho 2715 TIP3_2715    0.417
14230 OH2 1.160 55.788 -25.788 oh 2716 TIP3_2716   -0.834
14231 H1 1.076 55.109 -25.087 ho 2716 TIP3_2716    0.417
14232 H2 1.406 55.281 -26.565 ho 2716 TIP3_2716    0.417
14233 OH2 16.015 44.991 -29.713 oh 2717 TIP3_2717   -0.834
14234 H1 15.466 44.667 -28.996 ho 2717 TIP3_2717    0.417
14235 H2 15.471 44.677 -30.501 ho 2717 TIP3_2717    0.417
14236 OH2 10.575 33.329 -24.060 oh 2718 TIP3_2718   -0.834
14237 H1 9.988 32.850 -24.630 ho 2718 TIP3_2718    0.417
14238 H2 10.336 34.238 -24.136 ho 2718 TIP3_2718    0.417
14239 OH2 3.897 43.514 -28.849 oh 2719 TIP3_2719   -0.834
14240 H1 3.880 43.068 -28.002 ho 2719 TIP3_2719    0.417
14241 H2 2.887 43.677 -28.982 ho 2719 TIP3_2719    0.417
14242 OH2 12.291 52.648 -38.152 oh 2720 TIP3_2720   -0.834
14243 H1 11.437 53.105 -38.052 ho 2720 TIP3_2720    0.417
14244 H2 12.939 53.329 -38.400 ho 2720 TIP3_2720    0.417
14245 OH2 4.201 36.634 -32.246 oh 2721 TIP3_2721   -0.834
14246 H1 4.874 37.314 -32.123 ho 2721 TIP3_2721    0.417
14247 H2 4.387 36.347 -33.190 ho 2721 TIP3_2721    0.417
14248 OH2 8.717 54.411 -32.949 oh 2722 TIP3_2722   -0.834
14249 H1 8.171 54.886 -33.598 ho 2722 TIP3_2722    0.417
14250 H2 9.515 54.289 -33.485 ho 2722 TIP3_2722    0.417
14251 OH2 6.175 31.705 -27.411 oh 2723 TIP3_2723   -0.834
14252 H1 6.233 32.128 -28.324 ho 2723 TIP3_2723    0.417
14253 H2 5.501 30.974 -27.611 ho 2723 TIP3_2723    0.417
14254 OH2 13.327 50.035 -21.685 oh 2724 TIP3_2724   -0.834
14255 H1 13.846 50.491 -21.050 ho 2724 TIP3_2724    0.417
14256 H2 13.154 49.160 -21.397 ho 2724 TIP3_2724    0.417
14257 OH2 11.685 31.935 -30.242 oh 2725 TIP3_2725   -0.834
14258 H1 10.864 32.419 -30.217 ho 2725 TIP3_2725    0.417
14259 H2 12.340 32.586 -30.034 ho 2725 TIP3_2725    0.417
14260 OH2 4.059 41.798 -34.555 oh 2726 TIP3_2726   -0.834
14261 H1 3.687 42.255 -33.761 ho 2726 TIP3_2726    0.417
14262 H2 4.347 42.528 -35.130 ho 2726 TIP3_2726    0.417
14263 OH2 18.935 33.885 -29.161 oh 2727 TIP3_2727   -0.834
14264 H1 18.376 34.663 -29.409 ho 2727 TIP3_2727    0.417
14265 H2 19.234 33.517 -29.949 ho 2727 TIP3_2727    0.417
14266 OH2 11.759 38.858 -26.759 oh 2728 TIP3_2728   -0.834
14267 H1 12.254 38.078 -26.700 ho 2728 TIP3_2728    0.417
14268 H2 11.903 39.277 -25.906 ho 2728 TIP3_2728    0.417
14269 OH2 7.383 33.023 -22.609 oh 2729 TIP3_2729   -0.834
14270 H1 6.933 32.510 -23.377 ho 2729 TIP3_2729    0.417
14271 H2 6.666 33.362 -22.081 ho 2729 TIP3_2729    0.417
14272 OH2 8.027 47.407 -27.441 oh 2730 TIP3_2730   -0.834
14273 H1 7.840 46.573 -27.933 ho 2730 TIP3_2730    0.417
14274 H2 8.395 47.972 -28.121 ho 2730 TIP3_2730    0.417
14275 OH2 10.560 35.853 -28.955 oh 2731 TIP3_2731   -0.834
14276 H1 10.946 35.306 -28.244 ho 2731 TIP3_2731    0.417
14277 H2 10.112 35.135 -29.526 ho 2731 TIP3_2731    0.417
14278 OH2 17.863 48.158 -38.612 oh 2732 TIP3_2732   -0.834
14279 H1 18.052 48.136 -39.538 ho 2732 TIP3_2732    0.417
14280 H2 18.197 49.078 -38.409 ho 2732 TIP3_2732    0.417
14281 OH2 13.720 25.915 -30.042 oh 2733 TIP3_2733   -0.834
14282 H1 13.543 26.255 -30.939 ho 2733 TIP3_2733    0.417
14283 H2 14.041 26.665 -29.553 ho 2733 TIP3_2733    0.417
14284 OH2 23.411 28.235 -30.211 oh 2734 TIP3_2734   -0.834
14285 H1 23.908 27.368 -30.173 ho 2734 TIP3_2734    0.417
14286 H2 23.912 28.832 -29.643 ho 2734 TIP3_2734    0.417
14287 OH2 15.440 37.416 -39.197 oh 2735 TIP3_2735   -0.834
14288 H1 14.777 37.215 -38.548 ho 2735 TIP3_2735    0.417
14289 H2 15.278 38.376 -39.325 ho 2735 TIP3_2735    0.417
14290 OH2 12.225 34.473 -33.145 oh 2736 TIP3_2736   -0.834
14291 H1 11.967 33.771 -33.761 ho 2736 TIP3_2736    0.417
14292 H2 11.399 34.823 -32.786 ho 2736 TIP3_2736    0.417
14293 OH2 20.512 42.034 -28.903 oh 2737 TIP3_2737   -0.834
14294 H1 21.434 42.328 -29.073 ho 2737 TIP3_2737    0.417
14295 H2 19.980 42.682 -29.378 ho 2737 TIP3_2737    0.417
14296 OH2 16.639 45.334 -33.497 oh 2738 TIP3_2738   -0.834
14297 H1 16.439 45.932 -34.293 ho 2738 TIP3_2738    0.417
14298 H2 17.349 45.715 -32.970 ho 2738 TIP3_2738    0.417
14299 OH2 14.898 56.119 -34.968 oh 2739 TIP3_2739   -0.834
14300 H1 14.980 55.186 -35.256 ho 2739 TIP3_2739    0.417
14301 H2 15.301 56.228 -34.103 ho 2739 TIP3_2739    0.417
14302 OH2 12.281 56.681 -25.760 oh 2740 TIP3_2740   -0.834
14303 H1 12.520 57.442 -26.341 ho 2740 TIP3_2740    0.417
14304 H2 12.940 56.105 -26.124 ho 2740 TIP3_2740    0.417
14305 OH2 10.826 53.528 -23.171 oh 2741 TIP3_2741   -0.834
14306 H1 10.546 52.563 -22.983 ho 2741 TIP3_2741    0.417
14307 H2 10.225 53.805 -23.879 ho 2741 TIP3_2741    0.417
14308 OH2 21.611 56.062 -23.755 oh 2742 TIP3_2742   -0.834
14309 H1 21.325 57.017 -23.912 ho 2742 TIP3_2742    0.417
14310 H2 22.446 56.075 -24.233 ho 2742 TIP3_2742    0.417
14311 OH2 2.885 32.362 -26.088 oh 2743 TIP3_2743   -0.834
14312 H1 2.855 33.348 -25.985 ho 2743 TIP3_2743    0.417
14313 H2 2.734 32.039 -25.175 ho 2743 TIP3_2743    0.417
14314 OH2 19.012 43.741 -30.475 oh 2744 TIP3_2744   -0.834
14315 H1 18.765 44.691 -30.589 ho 2744 TIP3_2744    0.417
14316 H2 18.551 43.278 -31.199 ho 2744 TIP3_2744    0.417
14317 OH2 13.710 33.810 -29.476 oh 2745 TIP3_2745   -0.834
14318 H1 14.285 34.565 -29.422 ho 2745 TIP3_2745    0.417
14319 H2 14.249 33.054 -29.577 ho 2745 TIP3_2745    0.417
14320 OH2 7.627 45.031 -29.044 oh 2746 TIP3_2746   -0.834
14321 H1 6.932 44.983 -29.766 ho 2746 TIP3_2746    0.417
14322 H2 7.516 44.179 -28.536 ho 2746 TIP3_2746    0.417
14323 OH2 11.162 52.874 -27.021 oh 2747 TIP3_2747   -0.834
14324 H1 12.054 52.642 -26.800 ho 2747 TIP3_2747    0.417
14325 H2 10.784 52.060 -27.081 ho 2747 TIP3_2747    0.417
14326 OH2 15.339 37.497 -25.629 oh 2748 TIP3_2748   -0.834
14327 H1 15.255 38.359 -26.061 ho 2748 TIP3_2748    0.417
14328 H2 14.437 37.162 -25.728 ho 2748 TIP3_2748    0.417
14329 OH2 8.185 35.875 -34.505 oh 2749 TIP3_2749   -0.834
14330 H1 7.568 36.425 -33.964 ho 2749 TIP3_2749    0.417
14331 H2 7.538 35.589 -35.227 ho 2749 TIP3_2749    0.417
14332 OH2 13.685 37.397 -22.963 oh 2750 TIP3_2750   -0.834
14333 H1 12.893 37.795 -23.360 ho 2750 TIP3_2750    0.417
14334 H2 13.756 36.563 -23.418 ho 2750 TIP3_2750    0.417
14335 OH2 7.300 55.502 -34.924 oh 2751 TIP3_2751   -0.834
14336 H1 7.005 55.159 -35.743 ho 2751 TIP3_2751    0.417
14337 H2 6.914 56.375 -34.817 ho 2751 TIP3_2751    0.417
14338 OH2 3.308 32.751 -28.799 oh 2752 TIP3_2752   -0.834
14339 H1 3.564 31.825 -29.084 ho 2752 TIP3_2752    0.417
14340 H2 3.125 32.651 -27.860 ho 2752 TIP3_2752    0.417
14341 OH2 16.039 54.633 -37.329 oh 2753 TIP3_2753   -0.834
14342 H1 15.909 53.804 -36.842 ho 2753 TIP3_2753    0.417
14343 H2 16.994 54.671 -37.272 ho 2753 TIP3_2753    0.417
14344 OH2 14.192 52.065 -25.877 oh 2754 TIP3_2754   -0.834
14345 H1 14.122 51.450 -26.610 ho 2754 TIP3_2754    0.417
14346 H2 14.538 51.461 -25.188 ho 2754 TIP3_2754    0.417
14347 OH2 24.124 31.552 -37.392 oh 2755 TIP3_2755   -0.834
14348 H1 24.762 31.637 -36.717 ho 2755 TIP3_2755    0.417
14349 H2 24.436 30.821 -37.963 ho 2755 TIP3_2755    0.417
14350 OH2 11.528 55.978 -39.727 oh 2756 TIP3_2756   -0.834
14351 H1 11.655 56.907 -39.596 ho 2756 TIP3_2756    0.417
14352 H2 12.409 55.582 -39.468 ho 2756 TIP3_2756    0.417
14353 OH2 17.248 52.118 -28.487 oh 2757 TIP3_2757   -0.834
14354 H1 17.128 52.046 -29.461 ho 2757 TIP3_2757    0.417
14355 H2 17.647 51.300 -28.214 ho 2757 TIP3_2757    0.417
14356 OH2 5.990 49.095 -33.875 oh 2758 TIP3_2758   -0.834
14357 H1 5.920 48.621 -32.993 ho 2758 TIP3_2758    0.417
14358 H2 6.910 48.868 -34.115 ho 2758 TIP3_2758    0.417
14359 OH2 15.236 44.222 -22.805 oh 2759 TIP3_2759   -0.834
14360 H1 15.979 44.833 -22.541 ho 2759 TIP3_2759    0.417
14361 H2 14.506 44.583 -22.328 ho 2759 TIP3_2759    0.417
14362 OH2 22.601 46.430 -27.040 oh 2760 TIP3_2760   -0.834
14363 H1 22.867 47.343 -26.994 ho 2760 TIP3_2760    0.417
14364 H2 22.343 46.271 -27.955 ho 2760 TIP3_2760    0.417
14365 OH2 23.034 35.417 -30.358 oh 2761 TIP3_2761   -0.834
14366 H1 22.117 35.549 -29.975 ho 2761 TIP3_2761    0.417
14367 H2 23.342 36.248 -30.696 ho 2761 TIP3_2761    0.417
14368 OH2 17.278 46.259 -26.002 oh 2762 TIP3_2762   -0.834
14369 H1 17.738 46.492 -25.246 ho 2762 TIP3_2762    0.417
14370 H2 16.915 47.097 -26.297 ho 2762 TIP3_2762    0.417
14371 OH2 24.210 46.339 -33.712 oh 2763 TIP3_2763   -0.834
14372 H1 23.842 45.922 -34.488 ho 2763 TIP3_2763    0.417
14373 H2 23.722 45.936 -32.980 ho 2763 TIP3_2763    0.417
14374 OH2 11.051 46.549 -24.253 oh 2764 TIP3_2764   -0.834
14375 H1 11.255 46.107 -25.080 ho 2764 TIP3_2764    0.417
14376 H2 11.833 46.449 -23.640 ho 2764 TIP3_2764    0.417
14377 OH2 12.038 29.237 -29.630 oh 2765 TIP3_2765   -0.834
14378 H1 12.927 29.538 -29.940 ho 2765 TIP3_2765    0.417
14379 H2 11.566 30.050 -29.774 ho 2765 TIP3_2765    0.417
14380 OH2 17.316 35.474 -22.435 oh 2766 TIP3_2766   -0.834
14381 H1 16.506 35.486 -21.950 ho 2766 TIP3_2766    0.417
14382 H2 17.354 36.358 -22.933 ho 2766 TIP3_2766    0.417
14383 OH2 20.576 34.333 -34.057 oh 2767 TIP3_2767   -0.834
14384 H1 20.461 35.275 -33.978 ho 2767 TIP3_2767    0.417
14385 H2 19.983 33.996 -33.384 ho 2767 TIP3_2767    0.417
14386 OH2 23.207 52.256 -23.209 oh 2768 TIP3_2768   -0.834
14387 H1 23.994 51.781 -23.586 ho 2768 TIP3_2768    0.417
14388 H2 22.672 52.476 -23.976 ho 2768 TIP3_2768    0.417
14389 OH2 8.974 47.808 -37.829 oh 2769 TIP3_2769   -0.834
14390 H1 9.889 48.172 -37.879 ho 2769 TIP3_2769    0.417
14391 H2 8.813 47.805 -36.890 ho 2769 TIP3_2769    0.417
14392 OH2 8.028 41.707 -35.034 oh 2770 TIP3_2770   -0.834
14393 H1 7.488 42.000 -34.308 ho 2770 TIP3_2770    0.417
14394 H2 8.536 41.028 -34.551 ho 2770 TIP3_2770    0.417
14395 OH2 2.127 25.409 -37.384 oh 2771 TIP3_2771   -0.834
14396 H1 1.234 25.232 -37.558 ho 2771 TIP3_2771    0.417
14397 H2 2.331 26.242 -37.819 ho 2771 TIP3_2771    0.417
14398 OH2 22.206 54.973 -35.492 oh 2772 TIP3_2772   -0.834
14399 H1 21.785 55.445 -36.229 ho 2772 TIP3_2772    0.417
14400 H2 22.644 54.219 -35.923 ho 2772 TIP3_2772    0.417
14401 OH2 15.175 40.056 -39.585 oh 2773 TIP3_2773   -0.834
14402 H1 14.250 40.224 -39.378 ho 2773 TIP3_2773    0.417
14403 H2 15.604 40.463 -38.852 ho 2773 TIP3_2773    0.417
14404 OH2 20.006 41.933 -36.039 oh 2774 TIP3_2774   -0.834
14405 H1 19.192 41.402 -35.996 ho 2774 TIP3_2774    0.417
14406 H2 20.324 41.696 -36.908 ho 2774 TIP3_2774    0.417
14407 OH2 10.653 50.857 -36.046 oh 2775 TIP3_2775   -0.834
14408 H1 10.956 51.183 -35.187 ho 2775 TIP3_2775    0.417
14409 H2 11.136 51.461 -36.642 ho 2775 TIP3_2775    0.417
14410 OH2 17.293 41.270 -24.555 oh 2776 TIP3_2776   -0.834
14411 H1 18.032 41.944 -24.670 ho 2776 TIP3_2776    0.417
14412 H2 17.720 40.687 -23.924 ho 2776 TIP3_2776    0.417
14413 OH2 23.325 38.398 -33.470 oh 2777 TIP3_2777   -0.834
14414 H1 22.879 38.081 -32.654 ho 2777 TIP3_2777    0.417
14415 H2 22.620 38.913 -33.823 ho 2777 TIP3_2777    0.417
14416 OH2 0.596 31.733 -29.669 oh 2778 TIP3_2778   -0.834
14417 H1 1.356 31.141 -29.906 ho 2778 TIP3_2778    0.417
14418 H2 0.494 31.551 -28.709 ho 2778 TIP3_2778    0.417
14419 OH2 17.457 29.368 -27.512 oh 2779 TIP3_2779   -0.834
14420 H1 17.139 30.306 -27.545 ho 2779 TIP3_2779    0.417
14421 H2 18.209 29.444 -26.883 ho 2779 TIP3_2779    0.417
14422 OH2 15.427 44.197 -25.522 oh 2780 TIP3_2780   -0.834
14423 H1 16.047 44.944 -25.558 ho 2780 TIP3_2780    0.417
14424 H2 15.404 44.010 -24.564 ho 2780 TIP3_2780    0.417
14425 OH2 11.674 34.931 -21.764 oh 2781 TIP3_2781   -0.834
14426 H1 11.138 34.096 -21.806 ho 2781 TIP3_2781    0.417
14427 H2 11.354 35.503 -22.518 ho 2781 TIP3_2781    0.417
14428 OH2 10.370 56.305 -30.968 oh 2782 TIP3_2782   -0.834
14429 H1 10.419 55.340 -31.090 ho 2782 TIP3_2782    0.417
14430 H2 9.481 56.418 -30.629 ho 2782 TIP3_2782    0.417
14431 OH2 7.031 51.248 -26.222 oh 2783 TIP3_2783   -0.834
14432 H1 6.580 52.134 -26.055 ho 2783 TIP3_2783    0.417
14433 H2 7.425 51.036 -25.354 ho 2783 TIP3_2783    0.417
14434 OH2 4.361 51.115 -34.689 oh 2784 TIP3_2784   -0.834
14435 H1 5.188 50.555 -34.557 ho 2784 TIP3_2784    0.417
14436 H2 4.590 51.982 -34.224 ho 2784 TIP3_2784    0.417
14437 OH2 7.733 55.590 -30.624 oh 2785 TIP3_2785   -0.834
14438 H1 7.538 55.142 -31.436 ho 2785 TIP3_2785    0.417
14439 H2 8.111 54.846 -30.097 ho 2785 TIP3_2785    0.417
14440 OH2 2.445 29.801 -34.707 oh 2786 TIP3_2786   -0.834
14441 H1 2.476 28.983 -34.163 ho 2786 TIP3_2786    0.417
14442 H2 2.046 30.460 -34.139 ho 2786 TIP3_2786    0.417
14443 OH2 3.957 46.722 -34.497 oh 2787 TIP3_2787   -0.834
14444 H1 3.135 46.403 -34.937 ho 2787 TIP3_2787    0.417
14445 H2 3.661 47.493 -33.925 ho 2787 TIP3_2787    0.417
14446 OH2 4.435 53.189 -28.513 oh 2788 TIP3_2788   -0.834
14447 H1 4.147 54.086 -28.564 ho 2788 TIP3_2788    0.417
14448 H2 4.190 52.885 -27.613 ho 2788 TIP3_2788    0.417
14449 OH2 23.864 43.761 -24.573 oh 2789 TIP3_2789   -0.834
14450 H1 24.183 44.110 -23.726 ho 2789 TIP3_2789    0.417
14451 H2 24.593 43.175 -24.787 ho 2789 TIP3_2789    0.417
14452 OH2 4.237 37.339 -29.299 oh 2790 TIP3_2790   -0.834
14453 H1 4.431 38.273 -29.322 ho 2790 TIP3_2790    0.417
14454 H2 5.103 36.948 -29.119 ho 2790 TIP3_2790    0.417
14455 OH2 21.738 26.517 -26.556 oh 2791 TIP3_2791   -0.834
14456 H1 21.831 26.926 -25.708 ho 2791 TIP3_2791    0.417
14457 H2 21.321 25.726 -26.308 ho 2791 TIP3_2791    0.417
14458 OH2 14.595 41.392 -24.296 oh 2792 TIP3_2792   -0.834
14459 H1 15.528 41.280 -24.313 ho 2792 TIP3_2792    0.417
14460 H2 14.462 41.872 -23.458 ho 2792 TIP3_2792    0.417
14461 OH2 11.482 42.197 -31.567 oh 2793 TIP3_2793   -0.834
14462 H1 11.006 41.432 -31.905 ho 2793 TIP3_2793    0.417
14463 H2 12.417 42.026 -31.853 ho 2793 TIP3_2793    0.417
14464 OH2 5.894 27.961 -24.656 oh 2794 TIP3_2794   -0.834
14465 H1 5.707 27.302 -24.003 ho 2794 TIP3_2794    0.417
14466 H2 5.648 27.526 -25.511 ho 2794 TIP3_2794    0.417
14467 OH2 11.521 43.147 -38.889 oh 2795 TIP3_2795   -0.834
14468 H1 11.496 44.085 -38.899 ho 2795 TIP3_2795    0.417
14469 H2 10.815 42.917 -38.333 ho 2795 TIP3_2795    0.417
14470 OH2 12.198 39.444 -24.175 oh 2796 TIP3_2796   -0.834
14471 H1 11.753 39.727 -23.323 ho 2796 TIP3_2796    0.417
14472 H2 13.019 39.904 -24.196 ho 2796 TIP3_2796    0.417
14473 OH2 9.244 47.149 -22.137 oh 2797 TIP3_2797   -0.834
14474 H1 9.911 47.111 -21.431 ho 2797 TIP3_2797    0.417
14475 H2 9.746 46.912 -22.910 ho 2797 TIP3_2797    0.417
14476 OH2 0.331 34.880 -35.621 oh 2798 TIP3_2798   -0.834
14477 H1 0.003 34.412 -36.448 ho 2798 TIP3_2798    0.417
14478 H2 0.326 34.139 -34.956 ho 2798 TIP3_2798    0.417
14479 OH2 18.741 54.513 -37.562 oh 2799 TIP3_2799   -0.834
14480 H1 19.065 55.060 -36.834 ho 2799 TIP3_2799    0.417
14481 H2 18.923 55.117 -38.289 ho 2799 TIP3_2799    0.417
14482 OH2 17.629 45.389 -22.223 oh 2800 TIP3_2800   -0.834
14483 H1 18.133 44.621 -22.437 ho 2800 TIP3_2800    0.417
14484 H2 17.959 46.024 -22.820 ho 2800 TIP3_2800    0.417
14485 OH2 14.062 39.393 -33.274 oh 2801 TIP3_2801   -0.834
14486 H1 13.900 38.597 -32.820 ho 2801 TIP3_2801    0.417
14487 H2 13.341 39.522 -33.914 ho 2801 TIP3_2801    0.417
14488 OH2 18.963 50.606 -37.344 oh 2802 TIP3_2802   -0.834
14489 H1 19.761 50.198 -37.012 ho 2802 TIP3_2802    0.417
14490 H2 19.347 51.250 -38.010 ho 2802 TIP3_2802    0.417
14491 OH2 8.476 29.840 -31.139 oh 2803 TIP3_2803   -0.834
14492 H1 8.896 29.660 -30.325 ho 2803 TIP3_2803    0.417
14493 H2 8.229 28.926 -31.329 ho 2803 TIP3_2803    0.417
14494 OH2 3.583 55.824 -36.317 oh 2804 TIP3_2804   -0.834
14495 H1 3.557 55.908 -35.305 ho 2804 TIP3_2804    0.417
14496 H2 4.160 55.067 -36.388 ho 2804 TIP3_2804    0.417
14497 OH2 19.075 52.059 -26.290 oh 2805 TIP3_2805   -0.834
14498 H1 18.552 51.941 -25.440 ho 2805 TIP3_2805    0.417
14499 H2 18.423 52.118 -27.033 ho 2805 TIP3_2805    0.417
14500 OH2 12.443 49.171 -32.189 oh 2806 TIP3_2806   -0.834
14501 H1 11.966 49.983 -32.404 ho 2806 TIP3_2806    0.417
14502 H2 12.263 48.629 -32.969 ho 2806 TIP3_2806    0.417
14503 OH2 21.844 52.163 -36.682 oh 2807 TIP3_2807   -0.834
14504 H1 21.238 52.308 -37.441 ho 2807 TIP3_2807    0.417
14505 H2 21.242 52.343 -35.947 ho 2807 TIP3_2807    0.417
14506 OH2 3.287 54.686 -31.030 oh 2808 TIP3_2808   -0.834
14507 H1 3.048 54.997 -30.130 ho 2808 TIP3_2808    0.417
14508 H2 2.596 53.964 -31.101 ho 2808 TIP3_2808    0.417
14509 OH2 23.652 47.044 -21.387 oh 2809 TIP3_2809   -0.834
14510 H1 22.878 47.202 -20.743 ho 2809 TIP3_2809    0.417
14511 H2 24.361 47.544 -21.021 ho 2809 TIP3_2809    0.417
14512 OH2 13.172 26.589 -26.104 oh 2810 TIP3_2810   -0.834
14513 H1 12.963 27.501 -26.047 ho 2810 TIP3_2810    0.417
14514 H2 12.215 26.236 -26.166 ho 2810 TIP3_2810    0.417
14515 OH2 8.835 56.798 -21.720 oh 2811 TIP3_2811   -0.834
14516 H1 9.717 56.778 -22.057 ho 2811 TIP3_2811    0.417
14517 H2 8.509 55.949 -22.116 ho 2811 TIP3_2811    0.417
14518 OH2 22.367 55.772 -27.404 oh 2812 TIP3_2812   -0.834
14519 H1 21.542 55.491 -26.931 ho 2812 TIP3_2812    0.417
14520 H2 22.968 55.144 -27.096 ho 2812 TIP3_2812    0.417
14521 OH2 11.186 40.610 -22.041 oh 2813 TIP3_2813   -0.834
14522 H1 10.536 41.188 -22.525 ho 2813 TIP3_2813    0.417
14523 H2 10.630 40.379 -21.255 ho 2813 TIP3_2813    0.417
14524 OH2 18.409 37.168 -37.514 oh 2814 TIP3_2814   -0.834
14525 H1 17.679 36.911 -38.006 ho 2814 TIP3_2814    0.417
14526 H2 18.924 36.305 -37.300 ho 2814 TIP3_2814    0.417
14527 OH2 19.644 34.709 -36.816 oh 2815 TIP3_2815   -0.834
14528 H1 20.123 34.698 -35.947 ho 2815 TIP3_2815    0.417
14529 H2 19.788 33.748 -37.143 ho 2815 TIP3_2815    0.417
14530 OH2 14.698 35.555 -20.979 oh 2816 TIP3_2816   -0.834
14531 H1 14.296 36.119 -21.619 ho 2816 TIP3_2816    0.417
14532 H2 13.953 34.998 -20.668 ho 2816 TIP3_2816    0.417
14533 OH2 15.321 50.699 -23.592 oh 2817 TIP3_2817   -0.834
14534 H1 15.546 49.784 -23.268 ho 2817 TIP3_2817    0.417
14535 H2 14.467 50.854 -23.174 ho 2817 TIP3_2817    0.417
14536 OH2 2.034 38.570 -27.429 oh 2818 TIP3_2818   -0.834
14537 H1 1.603 38.392 -26.549 ho 2818 TIP3_2818    0.417
14538 H2 2.165 39.547 -27.443 ho 2818 TIP3_2818    0.417
14539 OH2 13.872 55.165 -27.349 oh 2819 TIP3_2819   -0.834
14540 H1 14.333 54.322 -27.181 ho 2819 TIP3_2819    0.417
14541 H2 14.365 55.598 -28.107 ho 2819 TIP3_2819    0.417
14542 OH2 4.462 46.024 -29.649 oh 2820 TIP3_2820   -0.834
14543 H1 4.814 45.763 -30.497 ho 2820 TIP3_2820    0.417
14544 H2 4.452 45.119 -29.241 ho 2820 TIP3_2820    0.417
14545 OH2 21.362 49.279 -28.619 oh 2821 TIP3_2821   -0.834
14546 H1 22.284 49.216 -28.975 ho 2821 TIP3_2821    0.417
14547 H2 20.903 49.688 -29.375 ho 2821 TIP3_2821    0.417
14548 OH2 2.820 27.473 -39.066 oh 2822 TIP3_2822   -0.834
14549 H1 3.525 28.169 -39.113 ho 2822 TIP3_2822    0.417
14550 H2 2.193 27.999 -38.501 ho 2822 TIP3_2822    0.417
14551 OH2 19.550 49.872 -33.305 oh 2823 TIP3_2823   -0.834
14552 H1 18.572 49.679 -33.396 ho 2823 TIP3_2823    0.417
14553 H2 19.653 50.722 -33.739 ho 2823 TIP3_2823    0.417
14554 OH2 12.833 36.382 -26.082 oh 2824 TIP3_2824   -0.834
14555 H1 12.472 35.665 -26.648 ho 2824 TIP3_2824    0.417
14556 H2 13.290 35.888 -25.415 ho 2824 TIP3_2824    0.417
14557 OH2 7.252 28.121 -34.270 oh 2825 TIP3_2825   -0.834
14558 H1 7.352 27.864 -33.354 ho 2825 TIP3_2825    0.417
14559 H2 7.769 27.419 -34.725 ho 2825 TIP3_2825    0.417
14560 OH2 24.052 56.964 -24.827 oh 2826 TIP3_2826   -0.834
14561 H1 24.301 56.204 -25.357 ho 2826 TIP3_2826    0.417
14562 H2 24.290 57.702 -25.316 ho 2826 TIP3_2826    0.417
14563 OH2 1.353 46.381 -35.560 oh 2827 TIP3_2827   -0.834
14564 H1 0.914 45.546 -35.729 ho 2827 TIP3_2827    0.417
14565 H2 0.689 46.985 -35.148 ho 2827 TIP3_2827    0.417
14566 OH2 19.282 40.961 -22.194 oh 2828 TIP3_2828   -0.834
14567 H1 19.319 41.839 -22.483 ho 2828 TIP3_2828    0.417
14568 H2 18.791 41.020 -21.373 ho 2828 TIP3_2828    0.417
14569 OH2 12.428 46.222 -21.442 oh 2829 TIP3_2829   -0.834
14570 H1 12.988 46.972 -21.282 ho 2829 TIP3_2829    0.417
14571 H2 11.732 46.392 -20.820 ho 2829 TIP3_2829    0.417
14572 OH2 8.325 39.130 -22.151 oh 2830 TIP3_2830   -0.834
14573 H1 8.550 38.486 -22.851 ho 2830 TIP3_2830    0.417
14574 H2 7.837 39.886 -22.565 ho 2830 TIP3_2830    0.417
14575 OH2 5.470 43.711 -36.235 oh 2831 TIP3_2831   -0.834
14576 H1 6.181 43.454 -36.789 ho 2831 TIP3_2831    0.417
14577 H2 4.687 43.721 -36.766 ho 2831 TIP3_2831    0.417
14578 OH2 7.381 54.281 -23.169 oh 2832 TIP3_2832   -0.834
14579 H1 6.517 53.803 -23.188 ho 2832 TIP3_2832    0.417
14580 H2 7.710 54.154 -24.038 ho 2832 TIP3_2832    0.417
14581 OH2 10.217 43.478 -29.399 oh 2833 TIP3_2833   -0.834
14582 H1 9.477 44.007 -29.739 ho 2833 TIP3_2833    0.417
14583 H2 10.647 43.091 -30.229 ho 2833 TIP3_2833    0.417
14584 OH2 10.573 45.568 -27.601 oh 2834 TIP3_2834   -0.834
14585 H1 10.495 44.909 -28.311 ho 2834 TIP3_2834    0.417
14586 H2 11.536 45.645 -27.501 ho 2834 TIP3_2834    0.417
14587 OH2 24.079 54.231 -33.533 oh 2835 TIP3_2835   -0.834
14588 H1 23.382 54.558 -34.097 ho 2835 TIP3_2835    0.417
14589 H2 23.989 53.222 -33.588 ho 2835 TIP3_2835    0.417
14590 OH2 2.684 34.702 -23.912 oh 2836 TIP3_2836   -0.834
14591 H1 2.282 33.789 -23.787 ho 2836 TIP3_2836    0.417
14592 H2 2.247 35.244 -23.229 ho 2836 TIP3_2836    0.417
14593 OH2 14.270 50.575 -37.443 oh 2837 TIP3_2837   -0.834
14594 H1 13.738 49.855 -37.786 ho 2837 TIP3_2837    0.417
14595 H2 13.629 51.323 -37.615 ho 2837 TIP3_2837    0.417
14596 OH2 16.712 56.504 -32.792 oh 2838 TIP3_2838   -0.834
14597 H1 17.466 56.131 -32.295 ho 2838 TIP3_2838    0.417
14598 H2 15.988 56.552 -32.122 ho 2838 TIP3_2838    0.417
14599 OH2 12.000 55.922 -36.293 oh 2839 TIP3_2839   -0.834
14600 H1 12.827 56.075 -35.857 ho 2839 TIP3_2839    0.417
14601 H2 11.406 56.698 -36.077 ho 2839 TIP3_2839    0.417
14602 OH2 22.378 45.244 -31.818 oh 2840 TIP3_2840   -0.834
14603 H1 21.880 45.467 -30.987 ho 2840 TIP3_2840    0.417
14604 H2 22.500 44.291 -31.749 ho 2840 TIP3_2840    0.417
14605 OH2 13.146 53.444 -32.676 oh 2841 TIP3_2841   -0.834
14606 H1 13.822 53.278 -33.319 ho 2841 TIP3_2841    0.417
14607 H2 13.298 54.354 -32.307 ho 2841 TIP3_2841    0.417
14608 OH2 11.626 45.950 -38.215 oh 2842 TIP3_2842   -0.834
14609 H1 11.391 46.874 -37.889 ho 2842 TIP3_2842    0.417
14610 H2 12.091 45.565 -37.414 ho 2842 TIP3_2842    0.417
14611 OH2 9.779 40.172 -31.945 oh 2843 TIP3_2843   -0.834
14612 H1 10.198 39.793 -31.212 ho 2843 TIP3_2843    0.417
14613 H2 9.457 39.383 -32.426 ho 2843 TIP3_2843    0.417
14614 OH2 5.667 30.002 -32.111 oh 2844 TIP3_2844   -0.834
14615 H1 5.007 30.652 -32.442 ho 2844 TIP3_2844    0.417
14616 H2 6.404 30.130 -32.754 ho 2844 TIP3_2844    0.417
14617 OH2 5.797 40.318 -33.217 oh 2845 TIP3_2845   -0.834
14618 H1 6.156 41.048 -32.761 ho 2845 TIP3_2845    0.417
14619 H2 5.134 40.647 -33.790 ho 2845 TIP3_2845    0.417
14620 OH2 19.613 34.742 -21.050 oh 2846 TIP3_2846   -0.834
14621 H1 20.292 35.249 -21.532 ho 2846 TIP3_2846    0.417
14622 H2 18.801 35.249 -21.362 ho 2846 TIP3_2846    0.417
14623 OH2 20.902 46.787 -33.921 oh 2847 TIP3_2847   -0.834
14624 H1 21.654 46.561 -33.334 ho 2847 TIP3_2847    0.417
14625 H2 20.903 46.072 -34.531 ho 2847 TIP3_2847    0.417
14626 OH2 17.392 49.079 -21.787 oh 2848 TIP3_2848   -0.834
14627 H1 17.340 50.036 -21.707 ho 2848 TIP3_2848    0.417
14628 H2 17.890 48.920 -22.631 ho 2848 TIP3_2848    0.417
14629 OH2 14.678 25.362 -36.511 oh 2849 TIP3_2849   -0.834
14630 H1 13.916 25.328 -37.116 ho 2849 TIP3_2849    0.417
14631 H2 14.424 25.936 -35.768 ho 2849 TIP3_2849    0.417
14632 OH2 19.591 27.121 -32.471 oh 2850 TIP3_2850   -0.834
14633 H1 19.046 27.294 -31.730 ho 2850 TIP3_2850    0.417
14634 H2 20.176 26.466 -32.197 ho 2850 TIP3_2850    0.417
14635 OH2 3.474 46.819 -21.619 oh 2851 TIP3_2851   -0.834
14636 H1 4.448 47.091 -21.431 ho 2851 TIP3_2851    0.417
14637 H2 3.268 46.210 -20.894 ho 2851 TIP3_2851    0.417
14638 OH2 14.063 39.097 -29.481 oh 2852 TIP3_2852   -0.834
14639 H1 13.356 39.461 -30.039 ho 2852 TIP3_2852    0.417
14640 H2 13.874 39.425 -28.584 ho 2852 TIP3_2852    0.417
14641 OH2 23.535 48.993 -36.802 oh 2853 TIP3_2853   -0.834
14642 H1 23.544 48.503 -35.970 ho 2853 TIP3_2853    0.417
14643 H2 23.734 48.300 -37.399 ho 2853 TIP3_2853    0.417
14644 OH2 14.392 47.623 -28.565 oh 2854 TIP3_2854   -0.834
14645 H1 15.139 47.544 -29.230 ho 2854 TIP3_2854    0.417
14646 H2 13.891 46.824 -28.835 ho 2854 TIP3_2854    0.417
14647 OH2 19.538 38.489 -26.910 oh 2855 TIP3_2855   -0.834
14648 H1 18.734 38.679 -27.413 ho 2855 TIP3_2855    0.417
14649 H2 19.131 38.588 -26.010 ho 2855 TIP3_2855    0.417
14650 OH2 24.518 51.226 -31.175 oh 2856 TIP3_2856   -0.834
14651 H1 23.611 50.893 -31.009 ho 2856 TIP3_2856    0.417
14652 H2 24.603 52.074 -30.791 ho 2856 TIP3_2856    0.417
14653 OH2 7.574 39.365 -25.510 oh 2857 TIP3_2857   -0.834
14654 H1 6.973 38.636 -25.597 ho 2857 TIP3_2857    0.417
14655 H2 7.103 40.079 -25.889 ho 2857 TIP3_2857    0.417
14656 OH2 17.092 40.908 -27.269 oh 2858 TIP3_2858   -0.834
14657 H1 17.380 41.785 -27.620 ho 2858 TIP3_2858    0.417
14658 H2 17.328 41.006 -26.316 ho 2858 TIP3_2858    0.417
14659 OH2 6.529 31.213 -24.755 oh 2859 TIP3_2859   -0.834
14660 H1 6.986 30.351 -24.637 ho 2859 TIP3_2859    0.417
14661 H2 6.168 31.113 -25.657 ho 2859 TIP3_2859    0.417
14662 OH2 17.928 53.077 -32.972 oh 2860 TIP3_2860   -0.834
14663 H1 18.414 52.842 -33.818 ho 2860 TIP3_2860    0.417
14664 H2 18.419 53.887 -32.600 ho 2860 TIP3_2860    0.417
14665 OH2 9.553 43.137 -36.906 oh 2861 TIP3_2861   -0.834
14666 H1 8.885 43.534 -37.499 ho 2861 TIP3_2861    0.417
14667 H2 9.059 42.464 -36.426 ho 2861 TIP3_2861    0.417
14668 OH2 15.728 46.508 -39.169 oh 2862 TIP3_2862   -0.834
14669 H1 15.116 47.120 -39.634 ho 2862 TIP3_2862    0.417
14670 H2 16.486 47.116 -38.932 ho 2862 TIP3_2862    0.417
14671 OH2 1.050 43.753 -29.554 oh 2863 TIP3_2863   -0.834
14672 H1 0.900 44.673 -29.635 ho 2863 TIP3_2863    0.417
14673 H2 1.455 43.516 -30.453 ho 2863 TIP3_2863    0.417
14674 OH2 1.173 51.160 -37.953 oh 2864 TIP3_2864   -0.834
14675 H1 0.814 52.030 -38.388 ho 2864 TIP3_2864    0.417
14676 H2 2.180 51.313 -38.001 ho 2864 TIP3_2864    0.417
14677 OH2 23.527 33.215 -32.250 oh 2865 TIP3_2865   -0.834
14678 H1 23.696 33.791 -31.508 ho 2865 TIP3_2865    0.417
14679 H2 22.513 33.291 -32.395 ho 2865 TIP3_2865    0.417
14680 OH2 16.544 31.028 -30.085 oh 2866 TIP3_2866   -0.834
14681 H1 16.484 31.544 -29.292 ho 2866 TIP3_2866    0.417
14682 H2 17.457 31.114 -30.294 ho 2866 TIP3_2866    0.417
14683 OH2 16.040 48.939 -26.148 oh 2867 TIP3_2867   -0.834
14684 H1 16.826 49.225 -26.651 ho 2867 TIP3_2867    0.417
14685 H2 15.476 48.629 -26.876 ho 2867 TIP3_2867    0.417
14686 OH2 21.702 39.413 -22.327 oh 2868 TIP3_2868   -0.834
14687 H1 22.452 39.652 -21.778 ho 2868 TIP3_2868    0.417
14688 H2 21.037 40.133 -22.095 ho 2868 TIP3_2868    0.417
14689 OH2 18.469 38.378 -31.577 oh 2869 TIP3_2869   -0.834
14690 H1 17.741 38.830 -31.216 ho 2869 TIP3_2869    0.417
14691 H2 19.111 38.992 -31.261 ho 2869 TIP3_2869    0.417
14692 OH2 16.163 30.437 -35.798 oh 2870 TIP3_2870   -0.834
14693 H1 15.576 30.419 -35.000 ho 2870 TIP3_2870    0.417
14694 H2 16.415 29.437 -35.807 ho 2870 TIP3_2870    0.417
14695 OH2 19.892 54.754 -26.313 oh 2871 TIP3_2871   -0.834
14696 H1 19.525 55.511 -25.787 ho 2871 TIP3_2871    0.417
14697 H2 19.991 53.969 -25.688 ho 2871 TIP3_2871    0.417
14698 OH2 23.018 43.758 -27.602 oh 2872 TIP3_2872   -0.834
14699 H1 22.663 44.652 -27.656 ho 2872 TIP3_2872    0.417
14700 H2 22.990 43.526 -26.642 ho 2872 TIP3_2872    0.417
14701 OH2 8.152 26.968 -31.724 oh 2873 TIP3_2873   -0.834
14702 H1 7.689 26.234 -32.103 ho 2873 TIP3_2873    0.417
14703 H2 8.804 26.559 -31.091 ho 2873 TIP3_2873    0.417
14704 OH2 11.166 51.356 -33.323 oh 2874 TIP3_2874   -0.834
14705 H1 10.328 51.530 -32.894 ho 2874 TIP3_2874    0.417
14706 H2 11.749 52.118 -32.998 ho 2874 TIP3_2874    0.417
14707 OH2 9.517 39.696 -28.677 oh 2875 TIP3_2875   -0.834
14708 H1 9.017 39.210 -28.053 ho 2875 TIP3_2875    0.417
14709 H2 10.388 39.222 -28.775 ho 2875 TIP3_2875    0.417
14710 OH2 23.925 47.784 -24.090 oh 2876 TIP3_2876   -0.834
14711 H1 23.641 47.490 -23.242 ho 2876 TIP3_2876    0.417
14712 H2 23.112 48.031 -24.569 ho 2876 TIP3_2876    0.417
14713 OH2 2.696 43.634 -25.657 oh 2877 TIP3_2877   -0.834
14714 H1 1.941 44.016 -25.209 ho 2877 TIP3_2877    0.417
14715 H2 3.424 44.014 -25.075 ho 2877 TIP3_2877    0.417
14716 OH2 4.991 53.121 -32.768 oh 2878 TIP3_2878   -0.834
14717 H1 4.530 53.721 -32.161 ho 2878 TIP3_2878    0.417
14718 H2 5.596 52.688 -32.130 ho 2878 TIP3_2878    0.417
14719 OH2 7.349 37.016 -28.548 oh 2879 TIP3_2879   -0.834
14720 H1 6.652 36.617 -27.971 ho 2879 TIP3_2879    0.417
14721 H2 8.149 36.926 -27.996 ho 2879 TIP3_2879    0.417
14722 OH2 16.918 48.339 -30.219 oh 2880 TIP3_2880   -0.834
14723 H1 16.362 48.012 -30.940 ho 2880 TIP3_2880    0.417
14724 H2 16.997 49.333 -30.466 ho 2880 TIP3_2880    0.417
14725 OH2 2.495 45.734 -23.941 oh 2881 TIP3_2881   -0.834
14726 H1 2.618 46.083 -23.066 ho 2881 TIP3_2881    0.417
14727 H2 1.546 45.766 -24.029 ho 2881 TIP3_2881    0.417
14728 OH2 15.400 53.307 -21.248 oh 2882 TIP3_2882   -0.834
14729 H1 14.869 53.395 -22.032 ho 2882 TIP3_2882    0.417
14730 H2 14.963 53.651 -20.523 ho 2882 TIP3_2882    0.417
14731 OH2 0.364 26.265 -32.866 oh 2883 TIP3_2883   -0.834
14732 H1 -0.335 25.964 -32.210 ho 2883 TIP3_2883    0.417
14733 H2 0.826 25.478 -32.955 ho 2883 TIP3_2883    0.417
14734 OH2 18.032 51.733 -23.865 oh 2884 TIP3_2884   -0.834
14735 H1 17.838 51.956 -22.972 ho 2884 TIP3_2884    0.417
14736 H2 17.207 51.195 -24.055 ho 2884 TIP3_2884    0.417
14737 OH2 14.289 47.791 -23.905 oh 2885 TIP3_2885   -0.834
14738 H1 14.949 48.383 -24.380 ho 2885 TIP3_2885    0.417
14739 H2 13.789 47.404 -24.631 ho 2885 TIP3_2885    0.417
14740 OH2 13.641 53.747 -23.397 oh 2886 TIP3_2886   -0.834
14741 H1 12.669 53.714 -23.558 ho 2886 TIP3_2886    0.417
14742 H2 13.986 53.413 -24.231 ho 2886 TIP3_2886    0.417
14743 OH2 8.503 26.165 -35.677 oh 2887 TIP3_2887   -0.834
14744 H1 7.690 25.715 -35.951 ho 2887 TIP3_2887    0.417
14745 H2 9.005 25.981 -36.487 ho 2887 TIP3_2887    0.417
14746 OH2 19.695 42.223 -25.659 oh 2888 TIP3_2888   -0.834
14747 H1 20.124 41.461 -26.150 ho 2888 TIP3_2888    0.417
14748 H2 19.484 42.760 -26.362 ho 2888 TIP3_2888    0.417
14749 OH2 5.332 29.692 -35.952 oh 2889 TIP3_2889   -0.834
14750 H1 5.893 28.940 -35.604 ho 2889 TIP3_2889    0.417
14751 H2 4.553 29.824 -35.369 ho 2889 TIP3_2889    0.417
14752 OH2 5.722 44.320 -24.476 oh 2890 TIP3_2890   -0.834
14753 H1 6.315 44.981 -24.094 ho 2890 TIP3_2890    0.417
14754 H2 6.095 44.262 -25.376 ho 2890 TIP3_2890    0.417
14755 OH2 0.575 41.759 -38.058 oh 2891 TIP3_2891   -0.834
14756 H1 0.444 41.307 -37.180 ho 2891 TIP3_2891    0.417
14757 H2 0.764 40.962 -38.645 ho 2891 TIP3_2891    0.417
14758 OH2 5.868 53.734 -37.269 oh 2892 TIP3_2892   -0.834
14759 H1 5.991 54.422 -37.981 ho 2892 TIP3_2892    0.417
14760 H2 6.515 53.043 -37.516 ho 2892 TIP3_2892    0.417
14761 OH2 4.290 29.425 -27.608 oh 2893 TIP3_2893   -0.834
14762 H1 4.842 29.097 -28.302 ho 2893 TIP3_2893    0.417
14763 H2 3.399 29.013 -27.841 ho 2893 TIP3_2893    0.417
14764 OH2 22.484 49.079 -26.279 oh 2894 TIP3_2894   -0.834
14765 H1 22.307 49.846 -25.699 ho 2894 TIP3_2894    0.417
14766 H2 21.938 49.185 -27.069 ho 2894 TIP3_2894    0.417
14767 OH2 16.441 33.013 -34.605 oh 2895 TIP3_2895   -0.834
14768 H1 16.354 33.651 -35.345 ho 2895 TIP3_2895    0.417
14769 H2 16.280 32.128 -35.007 ho 2895 TIP3_2895    0.417
14770 OH2 11.114 53.527 -30.530 oh 2896 TIP3_2896   -0.834
14771 H1 11.585 53.342 -29.719 ho 2896 TIP3_2896    0.417
14772 H2 11.687 53.403 -31.276 ho 2896 TIP3_2896    0.417
14773 OH2 16.811 56.179 -20.699 oh 2897 TIP3_2897   -0.834
14774 H1 17.578 56.609 -21.123 ho 2897 TIP3_2897    0.417
14775 H2 16.497 55.652 -21.343 ho 2897 TIP3_2897    0.417
14776 OH2 6.900 41.211 -23.199 oh 2898 TIP3_2898   -0.834
14777 H1 7.581 41.723 -23.608 ho 2898 TIP3_2898    0.417
14778 H2 6.064 41.723 -23.338 ho 2898 TIP3_2898    0.417
14779 OH2 9.702 33.185 -20.918 oh 2899 TIP3_2899   -0.834
14780 H1 9.386 32.480 -20.405 ho 2899 TIP3_2899    0.417
14781 H2 9.028 33.218 -21.689 ho 2899 TIP3_2899    0.417
14782 OH2 4.487 56.469 -25.683 oh 2900 TIP3_2900   -0.834
14783 H1 3.967 57.221 -25.467 ho 2900 TIP3_2900    0.417
14784 H2 4.536 55.898 -24.878 ho 2900 TIP3_2900    0.417
14785 OH2 16.651 38.515 -34.759 oh 2901 TIP3_2901   -0.834
14786 H1 17.249 38.869 -34.009 ho 2901 TIP3_2901    0.417
14787 H2 16.180 37.748 -34.439 ho 2901 TIP3_2901    0.417
14788 OH2 23.002 34.470 -35.558 oh 2902 TIP3_2902   -0.834
14789 H1 22.117 34.528 -35.199 ho 2902 TIP3_2902    0.417
14790 H2 23.498 34.837 -34.793 ho 2902 TIP3_2902    0.417
14791 OH2 21.084 27.796 -23.627 oh 2903 TIP3_2903   -0.834
14792 H1 20.251 28.257 -23.837 ho 2903 TIP3_2903    0.417
14793 H2 21.686 28.561 -23.436 ho 2903 TIP3_2903    0.417
14794 OH2 1.601 46.149 -27.345 oh 2904 TIP3_2904   -0.834
14795 H1 2.129 46.882 -27.020 ho 2904 TIP3_2904    0.417
14796 H2 1.906 45.393 -26.862 ho 2904 TIP3_2904    0.417
14797 OH2 -0.073 49.245 -24.003 oh 2905 TIP3_2905   -0.834
14798 H1 0.786 49.617 -24.065 ho 2905 TIP3_2905    0.417
14799 H2 -0.147 49.047 -23.021 ho 2905 TIP3_2905    0.417
14800 OH2 23.756 33.278 -26.308 oh 2906 TIP3_2906   -0.834
14801 H1 22.892 33.439 -26.763 ho 2906 TIP3_2906    0.417
14802 H2 24.200 34.174 -26.268 ho 2906 TIP3_2906    0.417
14803 OH2 19.300 56.446 -21.779 oh 2907 TIP3_2907   -0.834
14804 H1 19.792 55.894 -22.420 ho 2907 TIP3_2907    0.417
14805 H2 19.833 56.368 -20.956 ho 2907 TIP3_2907    0.417
14806 OH2 5.071 36.491 -24.229 oh 2908 TIP3_2908   -0.834
14807 H1 4.660 37.410 -24.115 ho 2908 TIP3_2908    0.417
14808 H2 4.290 35.905 -24.125 ho 2908 TIP3_2908    0.417
14809 OH2 3.044 43.400 -37.478 oh 2909 TIP3_2909   -0.834
14810 H1 2.927 44.130 -38.225 ho 2909 TIP3_2909    0.417
14811 H2 2.159 43.177 -37.185 ho 2909 TIP3_2909    0.417
14812 OH2 1.978 49.748 -35.229 oh 2910 TIP3_2910   -0.834
14813 H1 2.752 50.332 -35.017 ho 2910 TIP3_2910    0.417
14814 H2 1.598 50.191 -35.955 ho 2910 TIP3_2910    0.417
14815 OH2 17.195 25.341 -20.952 oh 2911 TIP3_2911   -0.834
14816 H1 16.831 25.315 -21.865 ho 2911 TIP3_2911    0.417
14817 H2 17.989 25.926 -21.047 ho 2911 TIP3_2911    0.417
14818 OH2 2.297 36.888 -22.289 oh 2912 TIP3_2912   -0.834
14819 H1 1.465 37.430 -21.982 ho 2912 TIP3_2912    0.417
14820 H2 2.970 37.598 -22.304 ho 2912 TIP3_2912    0.417
14821 OH2 10.853 49.245 -25.160 oh 2913 TIP3_2913   -0.834
14822 H1 10.833 48.388 -24.720 ho 2913 TIP3_2913    0.417
14823 H2 10.889 48.988 -26.115 ho 2913 TIP3_2913    0.417
14824 OH2 2.726 50.191 -23.601 oh 2914 TIP3_2914   -0.834
14825 H1 3.178 50.298 -22.718 ho 2914 TIP3_2914    0.417
14826 H2 3.294 49.579 -24.079 ho 2914 TIP3_2914    0.417
14827 OH2 11.934 26.622 -32.167 oh 2915 TIP3_2915   -0.834
14828 H1 11.171 26.251 -32.620 ho 2915 TIP3_2915    0.417
14829 H2 11.578 27.041 -31.361 ho 2915 TIP3_2915    0.417
14830 OH2 6.804 37.756 -32.948 oh 2916 TIP3_2916   -0.834
14831 H1 6.543 38.642 -33.269 ho 2916 TIP3_2916    0.417
14832 H2 7.291 37.930 -32.133 ho 2916 TIP3_2916    0.417
14833 OH2 2.810 38.910 -35.817 oh 2917 TIP3_2917   -0.834
14834 H1 1.862 38.676 -35.942 ho 2917 TIP3_2917    0.417
14835 H2 2.831 39.639 -35.195 ho 2917 TIP3_2917    0.417
14836 OH2 18.157 33.615 -32.511 oh 2918 TIP3_2918   -0.834
14837 H1 17.685 33.384 -33.345 ho 2918 TIP3_2918    0.417
14838 H2 17.799 34.492 -32.290 ho 2918 TIP3_2918    0.417
14839 OH2 1.108 41.061 -28.361 oh 2919 TIP3_2919   -0.834
14840 H1 1.183 41.584 -29.193 ho 2919 TIP3_2919    0.417
14841 H2 1.317 41.684 -27.699 ho 2919 TIP3_2919    0.417
14842 OH2 4.495 48.138 -24.110 oh 2920 TIP3_2920   -0.834
14843 H1 4.139 47.254 -23.841 ho 2920 TIP3_2920    0.417
14844 H2 5.438 47.912 -24.208 ho 2920 TIP3_2920    0.417
14845 OH2 2.765 45.981 -39.146 oh 2921 TIP3_2921   -0.834
14846 H1 2.191 45.959 -39.961 ho 2921 TIP3_2921    0.417
14847 H2 2.432 46.832 -38.752 ho 2921 TIP3_2921    0.417
14848 OH2 16.848 49.407 -33.415 oh 2922 TIP3_2922   -0.834
14849 H1 16.324 48.586 -33.472 ho 2922 TIP3_2922    0.417
14850 H2 16.198 50.096 -33.116 ho 2922 TIP3_2922    0.417
14851 OH2 23.857 43.557 -34.765 oh 2923 TIP3_2923   -0.834
14852 H1 23.318 43.983 -35.442 ho 2923 TIP3_2923    0.417
14853 H2 24.516 43.089 -35.265 ho 2923 TIP3_2923    0.417
14854 OH2 17.850 30.159 -38.153 oh 2924 TIP3_2924   -0.834
14855 H1 17.246 30.715 -37.537 ho 2924 TIP3_2924    0.417
14856 H2 18.719 30.376 -37.721 ho 2924 TIP3_2924    0.417
14857 OH2 8.251 44.217 -26.277 oh 2925 TIP3_2925   -0.834
14858 H1 9.032 43.593 -26.444 ho 2925 TIP3_2925    0.417
14859 H2 8.686 45.092 -26.254 ho 2925 TIP3_2925    0.417
14860 OH2 20.169 29.717 -32.991 oh 2926 TIP3_2926   -0.834
14861 H1 21.074 29.592 -33.031 ho 2926 TIP3_2926    0.417
14862 H2 19.807 28.811 -33.011 ho 2926 TIP3_2926    0.417
14863 OH2 17.834 39.862 -37.793 oh 2927 TIP3_2927   -0.834
14864 H1 17.239 39.966 -37.006 ho 2927 TIP3_2927    0.417
14865 H2 18.120 38.960 -37.646 ho 2927 TIP3_2927    0.417
14866 OH2 6.100 48.775 -30.543 oh 2928 TIP3_2928   -0.834
14867 H1 5.416 49.441 -30.781 ho 2928 TIP3_2928    0.417
14868 H2 5.933 48.615 -29.633 ho 2928 TIP3_2928    0.417
14869 OH2 11.697 30.509 -32.843 oh 2929 TIP3_2929   -0.834
14870 H1 11.091 29.804 -32.606 ho 2929 TIP3_2929    0.417
14871 H2 11.834 30.967 -32.010 ho 2929 TIP3_2929    0.417
14872 OH2 19.766 50.206 -30.512 oh 2930 TIP3_2930   -0.834
14873 H1 20.017 50.061 -31.485 ho 2930 TIP3_2930    0.417
14874 H2 18.951 50.727 -30.596 ho 2930 TIP3_2930    0.417
14875 OH2 7.609 35.742 -23.624 oh 2931 TIP3_2931   -0.834
14876 H1 6.791 36.189 -23.825 ho 2931 TIP3_2931    0.417
14877 H2 7.237 35.064 -22.981 ho 2931 TIP3_2931    0.417
14878 OH2 13.595 26.784 -38.755 oh 2932 TIP3_2932   -0.834
14879 H1 13.500 26.305 -39.587 ho 2932 TIP3_2932    0.417
14880 H2 14.426 27.215 -38.960 ho 2932 TIP3_2932    0.417
14881 OH2 0.948 50.182 -32.605 oh 2933 TIP3_2933   -0.834
14882 H1 0.997 49.870 -33.514 ho 2933 TIP3_2933    0.417
14883 H2 0.233 49.634 -32.130 ho 2933 TIP3_2933    0.417
14884 OH2 19.843 43.629 -22.744 oh 2934 TIP3_2934   -0.834
14885 H1 20.547 43.859 -22.115 ho 2934 TIP3_2934    0.417
14886 H2 20.288 43.619 -23.581 ho 2934 TIP3_2934    0.417
14887 OH2 8.653 46.374 -35.511 oh 2935 TIP3_2935   -0.834
14888 H1 8.702 45.838 -36.298 ho 2935 TIP3_2935    0.417
14889 H2 7.888 46.034 -35.044 ho 2935 TIP3_2935    0.417
14890 OH2 1.897 37.094 -39.321 oh 2936 TIP3_2936   -0.834
14891 H1 1.514 36.280 -39.696 ho 2936 TIP3_2936    0.417
14892 H2 2.875 36.927 -39.447 ho 2936 TIP3_2936    0.417
14893 OH2 18.708 46.259 -32.064 oh 2937 TIP3_2937   -0.834
14894 H1 18.758 47.004 -31.514 ho 2937 TIP3_2937    0.417
14895 H2 19.486 46.441 -32.648 ho 2937 TIP3_2937    0.417
14896 OH2 4.320 39.103 -23.171 oh 2938 TIP3_2938   -0.834
14897 H1 4.585 39.184 -22.215 ho 2938 TIP3_2938    0.417
14898 H2 4.594 39.995 -23.568 ho 2938 TIP3_2938    0.417
14899 OH2 22.071 26.524 -35.304 oh 2939 TIP3_2939   -0.834
14900 H1 21.259 26.016 -35.139 ho 2939 TIP3_2939    0.417
14901 H2 22.251 27.001 -34.467 ho 2939 TIP3_2939    0.417
14902 OH2 16.711 27.091 -25.455 oh 2940 TIP3_2940   -0.834
14903 H1 17.228 27.799 -25.904 ho 2940 TIP3_2940    0.417
14904 H2 16.322 27.599 -24.731 ho 2940 TIP3_2940    0.417
14905 OH2 1.844 48.498 -38.022 oh 2941 TIP3_2941   -0.834
14906 H1 1.643 49.419 -37.863 ho 2941 TIP3_2941    0.417
14907 H2 1.537 48.018 -37.213 ho 2941 TIP3_2941    0.417
14908 OH2 0.589 30.270 -27.463 oh 2942 TIP3_2942   -0.834
14909 H1 0.815 29.478 -27.882 ho 2942 TIP3_2942    0.417
14910 H2 1.224 30.434 -26.743 ho 2942 TIP3_2942    0.417
14911 OH2 11.588 43.237 -34.695 oh 2943 TIP3_2943   -0.834
14912 H1 11.139 43.403 -35.521 ho 2943 TIP3_2943    0.417
14913 H2 11.515 42.279 -34.635 ho 2943 TIP3_2943    0.417
14914 OH2 21.273 36.801 -22.349 oh 2944 TIP3_2944   -0.834
14915 H1 21.351 37.768 -22.461 ho 2944 TIP3_2944    0.417
14916 H2 22.042 36.510 -22.866 ho 2944 TIP3_2944    0.417
14917 OH2 14.120 55.964 -31.883 oh 2945 TIP3_2945   -0.834
14918 H1 14.066 56.439 -30.987 ho 2945 TIP3_2945    0.417
14919 H2 13.534 56.537 -32.395 ho 2945 TIP3_2945    0.417
14920 OH2 4.289 28.150 -30.699 oh 2946 TIP3_2946   -0.834
14921 H1 4.950 28.790 -31.070 ho 2946 TIP3_2946    0.417
14922 H2 3.761 27.895 -31.479 ho 2946 TIP3_2946    0.417
14923 OH2 21.859 50.007 -22.153 oh 2947 TIP3_2947   -0.834
14924 H1 22.386 49.739 -21.380 ho 2947 TIP3_2947    0.417
14925 H2 22.363 50.734 -22.537 ho 2947 TIP3_2947    0.417
14926 OH2 16.154 28.835 -23.322 oh 2948 TIP3_2948   -0.834
14927 H1 16.131 29.569 -22.775 ho 2948 TIP3_2948    0.417
14928 H2 16.703 28.149 -22.838 ho 2948 TIP3_2948    0.417
14929 OH2 14.431 32.697 -32.199 oh 2949 TIP3_2949   -0.834
14930 H1 15.097 32.947 -32.840 ho 2949 TIP3_2949    0.417
14931 H2 13.693 33.335 -32.307 ho 2949 TIP3_2949    0.417
14932 OH2 1.417 45.249 -32.088 oh 2950 TIP3_2950   -0.834
14933 H1 0.862 45.922 -32.459 ho 2950 TIP3_2950    0.417
14934 H2 2.149 45.907 -31.751 ho 2950 TIP3_2950    0.417
14935 OH2 0.669 28.701 -30.966 oh 2951 TIP3_2951   -0.834
14936 H1 0.837 27.765 -31.111 ho 2951 TIP3_2951    0.417
14937 H2 1.139 28.915 -30.145 ho 2951 TIP3_2951    0.417
14938 OH2 7.773 27.259 -27.363 oh 2952 TIP3_2952   -0.834
14939 H1 7.793 26.467 -26.791 ho 2952 TIP3_2952    0.417
14940 H2 7.105 27.013 -28.009 ho 2952 TIP3_2952    0.417
14941 OH2 3.615 29.728 -23.578 oh 2953 TIP3_2953   -0.834
14942 H1 3.225 28.981 -24.153 ho 2953 TIP3_2953    0.417
14943 H2 4.456 29.836 -24.049 ho 2953 TIP3_2953    0.417
14944 OH2 21.166 29.784 -21.335 oh 2954 TIP3_2954   -0.834
14945 H1 21.327 30.128 -20.447 ho 2954 TIP3_2954    0.417
14946 H2 20.351 30.227 -21.558 ho 2954 TIP3_2954    0.417
14947 OH2 18.668 55.987 -35.151 oh 2955 TIP3_2955   -0.834
14948 H1 17.861 56.239 -34.656 ho 2955 TIP3_2955    0.417
14949 H2 19.310 56.654 -34.979 ho 2955 TIP3_2955    0.417
14950 OH2 9.299 32.071 -38.042 oh 2956 TIP3_2956   -0.834
14951 H1 8.774 31.521 -37.515 ho 2956 TIP3_2956    0.417
14952 H2 8.798 32.855 -38.284 ho 2956 TIP3_2956    0.417
14953 OH2 3.814 31.906 -32.626 oh 2957 TIP3_2957   -0.834
14954 H1 3.585 32.837 -32.441 ho 2957 TIP3_2957    0.417
14955 H2 2.928 31.575 -32.813 ho 2957 TIP3_2957    0.417
14956 OH2 22.551 33.539 -38.211 oh 2958 TIP3_2958   -0.834
14957 H1 22.451 33.907 -37.271 ho 2958 TIP3_2958    0.417
14958 H2 23.197 32.804 -38.063 ho 2958 TIP3_2958    0.417
14959 OH2 21.792 25.892 -31.681 oh 2959 TIP3_2959   -0.834
14960 H1 22.556 25.337 -31.870 ho 2959 TIP3_2959    0.417
14961 H2 22.143 26.794 -31.681 ho 2959 TIP3_2959    0.417
14962 OH2 24.188 49.029 -29.211 oh 2960 TIP3_2960   -0.834
14963 H1 24.601 49.231 -28.397 ho 2960 TIP3_2960    0.417
14964 H2 24.765 49.491 -29.900 ho 2960 TIP3_2960    0.417
14965 OH2 1.124 41.594 -23.193 oh 2961 TIP3_2961   -0.834
14966 H1 1.948 41.864 -22.756 ho 2961 TIP3_2961    0.417
14967 H2 1.137 42.048 -24.100 ho 2961 TIP3_2961    0.417
14968 OH2 12.331 37.683 -38.582 oh 2962 TIP3_2962   -0.834
14969 H1 11.873 37.605 -39.420 ho 2962 TIP3_2962    0.417
14970 H2 12.504 38.678 -38.536 ho 2962 TIP3_2962    0.417
14971 OH2 2.070 27.985 -25.288 oh 2963 TIP3_2963   -0.834
14972 H1 2.044 28.575 -26.080 ho 2963 TIP3_2963    0.417
14973 H2 2.302 27.071 -25.602 ho 2963 TIP3_2963    0.417
14974 OH2 24.433 51.769 -37.276 oh 2964 TIP3_2964   -0.834
14975 H1 24.323 50.854 -36.989 ho 2964 TIP3_2964    0.417
14976 H2 23.575 52.116 -36.931 ho 2964 TIP3_2964    0.417
14977 OH2 3.719 55.906 -28.479 oh 2965 TIP3_2965   -0.834
14978 H1 3.395 56.187 -27.588 ho 2965 TIP3_2965    0.417
14979 H2 4.590 56.280 -28.626 ho 2965 TIP3_2965    0.417
14980 OH2 5.680 48.011 -36.453 oh 2966 TIP3_2966   -0.834
14981 H1 5.863 48.667 -35.780 ho 2966 TIP3_2966    0.417
14982 H2 5.122 47.449 -35.860 ho 2966 TIP3_2966    0.417
14983 OH2 14.276 29.922 -31.090 oh 2967 TIP3_2967   -0.834
14984 H1 14.353 30.666 -31.676 ho 2967 TIP3_2967    0.417
14985 H2 14.973 30.108 -30.463 ho 2967 TIP3_2967    0.417
14986 OH2 1.481 52.553 -30.971 oh 2968 TIP3_2968   -0.834
14987 H1 1.004 52.381 -30.096 ho 2968 TIP3_2968    0.417
14988 H2 0.929 52.078 -31.618 ho 2968 TIP3_2968    0.417
14989 OH2 5.434 35.705 -26.732 oh 2969 TIP3_2969   -0.834
14990 H1 4.617 35.193 -26.823 ho 2969 TIP3_2969    0.417
14991 H2 5.536 35.753 -25.767 ho 2969 TIP3_2969    0.417
14992 OH2 2.510 47.709 -30.593 oh 2970 TIP3_2970   -0.834
14993 H1 3.180 47.143 -30.210 ho 2970 TIP3_2970    0.417
14994 H2 3.048 48.575 -30.668 ho 2970 TIP3_2970    0.417
14995 OH2 9.596 42.524 -23.442 oh 2971 TIP3_2971   -0.834
14996 H1 9.209 43.278 -23.033 ho 2971 TIP3_2971    0.417
14997 H2 9.831 42.780 -24.363 ho 2971 TIP3_2971    0.417
14998 OH2 8.590 49.057 -29.656 oh 2972 TIP3_2972   -0.834
14999 H1 9.102 48.354 -30.072 ho 2972 TIP3_2972    0.417
15000 H2 7.721 48.865 -30.077 ho 2972 TIP3_2972    0.417
15001 OH2 2.912 35.973 -35.928 oh 2973 TIP3_2973   -0.834
15002 H1 1.970 35.690 -35.925 ho 2973 TIP3_2973    0.417
15003 H2 2.786 36.941 -36.065 ho 2973 TIP3_2973    0.417
15004 OH2 0.872 47.902 -21.402 oh 2974 TIP3_2974   -0.834
15005 H1 1.770 47.404 -21.282 ho 2974 TIP3_2974    0.417
15006 H2 0.176 47.248 -21.501 ho 2974 TIP3_2974    0.417
15007 OH2 14.291 57.022 -22.462 oh 2975 TIP3_2975   -0.834
15008 H1 14.395 56.139 -22.833 ho 2975 TIP3_2975    0.417
15009 H2 13.973 56.884 -21.530 ho 2975 TIP3_2975    0.417
15010 OH2 0.022 40.022 -33.649 oh 2976 TIP3_2976   -0.834
15011 H1 0.811 39.708 -33.043 ho 2976 TIP3_2976    0.417
15012 H2 -0.583 39.272 -33.596 ho 2976 TIP3_2976    0.417
15013 OH2 7.704 55.573 -38.808 oh 2977 TIP3_2977   -0.834
15014 H1 7.141 55.374 -39.588 ho 2977 TIP3_2977    0.417
15015 H2 7.294 56.463 -38.495 ho 2977 TIP3_2977    0.417
15016 OH2 8.010 51.672 -32.664 oh 2978 TIP3_2978   -0.834
15017 H1 7.982 52.638 -32.578 ho 2978 TIP3_2978    0.417
15018 H2 7.347 51.374 -32.045 ho 2978 TIP3_2978    0.417
15019 OH2 9.994 32.262 -26.980 oh 2979 TIP3_2979   -0.834
15020 H1 9.847 31.328 -26.988 ho 2979 TIP3_2979    0.417
15021 H2 9.197 32.675 -26.627 ho 2979 TIP3_2979    0.417
15022 OH2 1.537 38.904 -24.508 oh 2980 TIP3_2980   -0.834
15023 H1 1.365 39.502 -23.823 ho 2980 TIP3_2980    0.417
15024 H2 2.409 38.482 -24.307 ho 2980 TIP3_2980    0.417
15025 OH2 22.230 39.331 -37.915 oh 2981 TIP3_2981   -0.834
15026 H1 22.419 39.712 -38.785 ho 2981 TIP3_2981    0.417
15027 H2 22.975 38.689 -37.701 ho 2981 TIP3_2981    0.417
15028 OH2 2.107 53.478 -34.016 oh 2982 TIP3_2982   -0.834
15029 H1 2.630 52.674 -34.261 ho 2982 TIP3_2982    0.417
15030 H2 1.224 53.217 -34.144 ho 2982 TIP3_2982    0.417
15031 OH2 12.233 45.009 -32.818 oh 2983 TIP3_2983   -0.834
15032 H1 12.096 44.390 -33.493 ho 2983 TIP3_2983    0.417
15033 H2 12.966 44.659 -32.270 ho 2983 TIP3_2983    0.417
15034 OH2 16.031 56.439 -29.793 oh 2984 TIP3_2984   -0.834
15035 H1 15.481 57.201 -30.122 ho 2984 TIP3_2984    0.417
15036 H2 16.584 56.851 -29.087 ho 2984 TIP3_2984    0.417
15037 OH2 7.344 46.914 -24.634 oh 2985 TIP3_2985   -0.834
15038 H1 8.019 47.333 -24.142 ho 2985 TIP3_2985    0.417
15039 H2 7.552 47.120 -25.547 ho 2985 TIP3_2985    0.417
15040 OH2 1.521 52.229 -25.307 oh 2986 TIP3_2986   -0.834
15041 H1 2.351 52.069 -24.827 ho 2986 TIP3_2986    0.417
15042 H2 1.583 51.483 -25.937 ho 2986 TIP3_2986    0.417
15043 OH2 23.961 40.761 -24.540 oh 2987 TIP3_2987   -0.834
15044 H1 23.339 40.050 -24.839 ho 2987 TIP3_2987    0.417
15045 H2 23.406 41.532 -24.317 ho 2987 TIP3_2987    0.417
15046 OH2 15.672 43.777 -39.081 oh 2988 TIP3_2988   -0.834
15047 H1 15.304 43.796 -39.944 ho 2988 TIP3_2988    0.417
15048 H2 15.669 44.675 -38.741 ho 2988 TIP3_2988    0.417
15049 OH2 18.297 27.000 -29.175 oh 2989 TIP3_2989   -0.834
15050 H1 17.862 27.774 -28.673 ho 2989 TIP3_2989    0.417
15051 H2 19.274 27.193 -28.923 ho 2989 TIP3_2989    0.417
15052 OH2 5.847 34.094 -33.051 oh 2990 TIP3_2990   -0.834
15053 H1 5.536 34.499 -32.215 ho 2990 TIP3_2990    0.417
15054 H2 6.760 33.912 -32.731 ho 2990 TIP3_2990    0.417
15055 OH2 2.681 27.467 -33.447 oh 2991 TIP3_2991   -0.834
15056 H1 2.966 26.730 -34.010 ho 2991 TIP3_2991    0.417
15057 H2 1.680 27.412 -33.407 ho 2991 TIP3_2991    0.417
15058 OH2 14.783 28.211 -28.293 oh 2992 TIP3_2992   -0.834
15059 H1 15.595 28.639 -28.442 ho 2992 TIP3_2992    0.417
15060 H2 14.877 27.999 -27.376 ho 2992 TIP3_2992    0.417
15061 OH2 10.388 39.201 -37.128 oh 2993 TIP3_2993   -0.834
15062 H1 10.822 38.417 -37.414 ho 2993 TIP3_2993    0.417
15063 H2 10.683 39.883 -37.748 ho 2993 TIP3_2993    0.417
15064 OH2 12.541 32.004 -22.630 oh 2994 TIP3_2994   -0.834
15065 H1 12.467 31.000 -22.570 ho 2994 TIP3_2994    0.417
15066 H2 11.717 32.184 -23.094 ho 2994 TIP3_2994    0.417
15067 OH2 22.090 39.158 -25.501 oh 2995 TIP3_2995   -0.834
15068 H1 21.475 39.028 -26.282 ho 2995 TIP3_2995    0.417
15069 H2 21.469 39.280 -24.787 ho 2995 TIP3_2995    0.417
15070 OH2 20.837 48.798 -35.957 oh 2996 TIP3_2996   -0.834
15071 H1 20.907 48.359 -35.060 ho 2996 TIP3_2996    0.417
15072 H2 21.616 49.361 -36.017 ho 2996 TIP3_2996    0.417
15073 OH2 13.466 48.022 -39.640 oh 2997 TIP3_2997   -0.834
15074 H1 12.949 48.849 -39.687 ho 2997 TIP3_2997    0.417
15075 H2 12.859 47.522 -39.124 ho 2997 TIP3_2997    0.417
15076 OH2 14.685 29.448 -33.837 oh 2998 TIP3_2998   -0.834
15077 H1 14.380 29.372 -32.919 ho 2998 TIP3_2998    0.417
15078 H2 14.772 28.568 -34.133 ho 2998 TIP3_2998    0.417
15079 OH2 10.444 34.893 -35.865 oh 2999 TIP3_2999   -0.834
15080 H1 9.898 35.185 -35.167 ho 2999 TIP3_2999    0.417
15081 H2 10.644 33.994 -35.452 ho 2999 TIP3_2999    0.417
15082 OH2 16.511 47.522 -35.648 oh 3000 TIP3_3000   -0.834
15083 H1 16.212 48.415 -35.872 ho 3000 TIP3_3000    0.417
15084 H2 17.434 47.488 -35.986 ho 3000 TIP3_3000    0.417
15085 OH2 12.926 37.227 -31.989 oh 3001 TIP3_3001   -0.834
15086 H1 12.544 37.486 -31.160 ho 3001 TIP3_3001    0.417
15087 H2 12.780 36.257 -32.062 ho 3001 TIP3_3001    0.417
15088 OH2 13.265 50.005 -27.753 oh 3002 TIP3_3002   -0.834
15089 H1 13.893 49.231 -28.109 ho 3002 TIP3_3002    0.417
15090 H2 12.406 49.598 -27.627 ho 3002 TIP3_3002    0.417
15091 OH2 13.064 45.344 -29.343 oh 3003 TIP3_3003   -0.834
15092 H1 13.211 44.482 -28.908 ho 3003 TIP3_3003    0.417
15093 H2 12.319 45.197 -30.027 ho 3003 TIP3_3003    0.417
15094 OH2 6.648 41.238 -38.762 oh 3004 TIP3_3004   -0.834
15095 H1 6.394 42.130 -38.371 ho 3004 TIP3_3004    0.417
15096 H2 5.936 40.643 -38.482 ho 3004 TIP3_3004    0.417
15097 OH2 0.857 54.295 -28.119 oh 3005 TIP3_3005   -0.834
15098 H1 0.568 54.647 -28.984 ho 3005 TIP3_3005    0.417
15099 H2 1.103 53.399 -28.327 ho 3005 TIP3_3005    0.417
15100 OH2 11.067 26.201 -37.653 oh 3006 TIP3_3006   -0.834
15101 H1 10.519 26.360 -38.474 ho 3006 TIP3_3006    0.417
15102 H2 11.916 26.499 -37.937 ho 3006 TIP3_3006    0.417
15103 OH2 24.083 57.049 -34.816 oh 3007 TIP3_3007   -0.834
15104 H1 23.865 57.313 -33.989 ho 3007 TIP3_3007    0.417
15105 H2 23.591 56.212 -34.914 ho 3007 TIP3_3007    0.417
15106 OH2 5.667 46.477 -38.568 oh 3008 TIP3_3008   -0.834
15107 H1 5.600 47.083 -37.781 ho 3008 TIP3_3008    0.417
15108 H2 4.728 46.243 -38.726 ho 3008 TIP3_3008    0.417
15109 OH2 19.106 31.572 -31.064 oh 3009 TIP3_3009   -0.834
15110 H1 18.789 32.317 -31.561 ho 3009 TIP3_3009    0.417
15111 H2 19.652 31.063 -31.706 ho 3009 TIP3_3009    0.417
15112 OH2 22.684 51.663 -33.346 oh 3010 TIP3_3010   -0.834
15113 H1 23.100 50.773 -33.304 ho 3010 TIP3_3010    0.417
15114 H2 22.102 51.541 -34.093 ho 3010 TIP3_3010    0.417
15115 OH2 22.025 41.537 -33.937 oh 3011 TIP3_3011   -0.834
15116 H1 22.678 42.234 -33.804 ho 3011 TIP3_3011    0.417
15117 H2 21.329 41.892 -34.519 ho 3011 TIP3_3011    0.417
15118 OH2 23.122 33.837 -22.902 oh 3012 TIP3_3012   -0.834
15119 H1 23.791 34.257 -23.431 ho 3012 TIP3_3012    0.417
15120 H2 22.355 33.827 -23.426 ho 3012 TIP3_3012    0.417
15121 OH2 22.105 54.211 -31.296 oh 3013 TIP3_3013   -0.834
15122 H1 21.414 54.452 -31.913 ho 3013 TIP3_3013    0.417
15123 H2 22.788 54.049 -31.975 ho 3013 TIP3_3013    0.417
15124 OH2 20.223 32.100 -38.335 oh 3014 TIP3_3014   -0.834
15125 H1 21.062 32.611 -38.439 ho 3014 TIP3_3014    0.417
15126 H2 20.344 31.577 -37.527 ho 3014 TIP3_3014    0.417
15127 OH2 19.649 32.130 -22.765 oh 3015 TIP3_3015   -0.834
15128 H1 19.516 33.093 -22.573 ho 3015 TIP3_3015    0.417
15129 H2 19.818 32.103 -23.768 ho 3015 TIP3_3015    0.417
15130 OH2 23.338 38.211 -30.596 oh 3016 TIP3_3016   -0.834
15131 H1 23.029 39.129 -30.594 ho 3016 TIP3_3016    0.417
15132 H2 22.643 37.844 -30.044 ho 3016 TIP3_3016    0.417
15133 OH2 18.280 34.414 -25.379 oh 3017 TIP3_3017   -0.834
15134 H1 18.000 34.832 -24.585 ho 3017 TIP3_3017    0.417
15135 H2 19.048 34.922 -25.603 ho 3017 TIP3_3017    0.417
15136 OH2 5.533 34.765 -21.252 oh 3018 TIP3_3018   -0.834
15137 H1 5.567 35.700 -21.058 ho 3018 TIP3_3018    0.417
15138 H2 4.591 34.539 -21.351 ho 3018 TIP3_3018    0.417
15139 OH2 21.615 52.150 -28.763 oh 3019 TIP3_3019   -0.834
15140 H1 21.567 52.363 -29.678 ho 3019 TIP3_3019    0.417
15141 H2 20.836 51.577 -28.639 ho 3019 TIP3_3019    0.417
15142 OH2 21.470 46.090 -38.597 oh 3020 TIP3_3020   -0.834
15143 H1 21.023 46.204 -37.720 ho 3020 TIP3_3020    0.417
15144 H2 20.812 45.876 -39.249 ho 3020 TIP3_3020    0.417
15145 OH2 14.114 34.942 -23.913 oh 3021 TIP3_3021   -0.834
15146 H1 13.333 34.302 -23.714 ho 3021 TIP3_3021    0.417
15147 H2 14.792 34.393 -23.510 ho 3021 TIP3_3021    0.417
15148 OH2 21.343 46.528 -29.499 oh 3022 TIP3_3022   -0.834
15149 H1 20.427 46.248 -29.251 ho 3022 TIP3_3022    0.417
15150 H2 21.235 47.508 -29.218 ho 3022 TIP3_3022    0.417
15151 OH2 9.708 34.860 -32.260 oh 3023 TIP3_3023   -0.834
15152 H1 9.416 33.967 -32.177 ho 3023 TIP3_3023    0.417
15153 H2 9.188 35.165 -32.999 ho 3023 TIP3_3023    0.417
15154 OH2 9.117 29.784 -27.681 oh 3024 TIP3_3024   -0.834
15155 H1 8.538 29.049 -27.665 ho 3024 TIP3_3024    0.417
15156 H2 9.966 29.401 -27.412 ho 3024 TIP3_3024    0.417
15157 OH2 17.242 32.447 -27.573 oh 3025 TIP3_3025   -0.834
15158 H1 17.771 33.117 -28.142 ho 3025 TIP3_3025    0.417
15159 H2 17.392 32.676 -26.606 ho 3025 TIP3_3025    0.417
15160 OH2 10.905 48.289 -27.823 oh 3026 TIP3_3026   -0.834
15161 H1 10.405 47.453 -27.737 ho 3026 TIP3_3026    0.417
15162 H2 11.099 48.300 -28.793 ho 3026 TIP3_3026    0.417
15163 OH2 14.527 51.045 -31.367 oh 3027 TIP3_3027   -0.834
15164 H1 13.938 50.260 -31.381 ho 3027 TIP3_3027    0.417
15165 H2 14.052 51.684 -31.897 ho 3027 TIP3_3027    0.417
15166 OH2 12.038 32.244 -38.318 oh 3028 TIP3_3028   -0.834
15167 H1 11.056 32.286 -38.143 ho 3028 TIP3_3028    0.417
15168 H2 12.432 31.701 -37.555 ho 3028 TIP3_3028    0.417
15169 OH2 12.329 44.419 -25.197 oh 3029 TIP3_3029   -0.834
15170 H1 13.207 44.288 -24.713 ho 3029 TIP3_3029    0.417
15171 H2 12.005 43.519 -25.308 ho 3029 TIP3_3029    0.417
15172 OH2 19.741 36.954 -33.945 oh 3030 TIP3_3030   -0.834
15173 H1 20.029 37.481 -34.719 ho 3030 TIP3_3030    0.417
15174 H2 19.135 37.600 -33.591 ho 3030 TIP3_3030    0.417
15175 OH2 2.204 34.677 -32.424 oh 3031 TIP3_3031   -0.834
15176 H1 2.643 35.396 -31.980 ho 3031 TIP3_3031    0.417
15177 H2 1.766 34.253 -31.674 ho 3031 TIP3_3031    0.417
15178 OH2 0.885 28.216 -36.798 oh 3032 TIP3_3032   -0.834
15179 H1 0.219 27.629 -36.331 ho 3032 TIP3_3032    0.417
15180 H2 1.368 28.629 -36.085 ho 3032 TIP3_3032    0.417
15181 OH2 8.966 30.572 -35.275 oh 3033 TIP3_3033   -0.834
15182 H1 9.760 30.409 -35.796 ho 3033 TIP3_3033    0.417
15183 H2 8.593 29.674 -34.961 ho 3033 TIP3_3033    0.417
15184 OH2 7.874 50.033 -23.059 oh 3034 TIP3_3034   -0.834
15185 H1 8.783 49.696 -23.140 ho 3034 TIP3_3034    0.417
15186 H2 7.868 50.147 -22.082 ho 3034 TIP3_3034    0.417
15187 OH2 13.648 35.935 -36.791 oh 3035 TIP3_3035   -0.834
15188 H1 13.213 36.509 -37.462 ho 3035 TIP3_3035    0.417
15189 H2 13.113 35.887 -35.992 ho 3035 TIP3_3035    0.417
15190 OH2 11.686 40.463 -34.481 oh 3036 TIP3_3036   -0.834
15191 H1 10.907 39.977 -34.424 ho 3036 TIP3_3036    0.417
15192 H2 12.050 40.059 -35.339 ho 3036 TIP3_3036    0.417
15193 OH2 16.684 38.087 -23.278 oh 3037 TIP3_3037   -0.834
15194 H1 15.998 38.043 -23.947 ho 3037 TIP3_3037    0.417
15195 H2 16.197 38.442 -22.477 ho 3037 TIP3_3037    0.417
15196 OH2 21.092 27.661 -28.973 oh 3038 TIP3_3038   -0.834
15197 H1 21.917 27.743 -29.535 ho 3038 TIP3_3038    0.417
15198 H2 21.424 27.067 -28.246 ho 3038 TIP3_3038    0.417
15199 OH2 19.175 46.915 -23.816 oh 3039 TIP3_3039   -0.834
15200 H1 19.982 46.257 -23.913 ho 3039 TIP3_3039    0.417
15201 H2 19.626 47.840 -23.818 ho 3039 TIP3_3039    0.417
15202 OH2 9.338 27.949 -39.090 oh 3040 TIP3_3040   -0.834
15203 H1 10.061 28.618 -39.191 ho 3040 TIP3_3040    0.417
15204 H2 8.640 28.431 -38.852 ho 3040 TIP3_3040    0.417
15205 OH2 6.657 32.413 -30.331 oh 3041 TIP3_3041   -0.834
15206 H1 6.102 31.899 -30.955 ho 3041 TIP3_3041    0.417
15207 H2 6.276 33.310 -30.218 ho 3041 TIP3_3041    0.417
15208 OH2 7.231 55.996 -26.292 oh 3042 TIP3_3042   -0.834
15209 H1 6.331 56.344 -26.120 ho 3042 TIP3_3042    0.417
15210 H2 7.051 55.275 -26.944 ho 3042 TIP3_3042    0.417
15211 OH2 -0.100 35.904 -26.137 oh 3043 TIP3_3043   -0.834
15212 H1 -0.605 36.011 -26.964 ho 3043 TIP3_3043    0.417
15213 H2 0.838 35.787 -26.379 ho 3043 TIP3_3043    0.417
15214 OH2 3.834 54.646 -23.470 oh 3044 TIP3_3044   -0.834
15215 H1 3.945 54.168 -22.616 ho 3044 TIP3_3044    0.417
15216 H2 2.869 54.694 -23.620 ho 3044 TIP3_3044    0.417
15217 OH2 4.874 53.123 -21.393 oh 3045 TIP3_3045   -0.834
15218 H1 4.015 53.213 -20.949 ho 3045 TIP3_3045    0.417
15219 H2 5.498 53.465 -20.767 ho 3045 TIP3_3045    0.417
15220 OH2 10.298 35.990 -23.999 oh 3046 TIP3_3046   -0.834
15221 H1 10.295 36.723 -24.546 ho 3046 TIP3_3046    0.417
15222 H2 9.284 35.739 -23.912 ho 3046 TIP3_3046    0.417
15223 OH2 13.667 27.938 -21.377 oh 3047 TIP3_3047   -0.834
15224 H1 13.061 28.495 -21.934 ho 3047 TIP3_3047    0.417
15225 H2 13.224 27.957 -20.502 ho 3047 TIP3_3047    0.417
15226 OH2 14.853 36.362 -29.504 oh 3048 TIP3_3048   -0.834
15227 H1 15.329 36.238 -28.664 ho 3048 TIP3_3048    0.417
15228 H2 14.808 37.351 -29.649 ho 3048 TIP3_3048    0.417
15229 OH2 15.300 41.537 -32.174 oh 3049 TIP3_3049   -0.834
15230 H1 16.302 41.543 -32.336 ho 3049 TIP3_3049    0.417
15231 H2 14.944 40.680 -32.403 ho 3049 TIP3_3049    0.417
15232 OH2 0.815 55.983 -30.743 oh 3050 TIP3_3050   -0.834
15233 H1 1.628 56.032 -31.271 ho 3050 TIP3_3050    0.417
15234 H2 0.220 55.934 -31.527 ho 3050 TIP3_3050    0.417
15235 OH2 14.486 43.196 -28.135 oh 3051 TIP3_3051   -0.834
15236 H1 14.797 43.710 -27.392 ho 3051 TIP3_3051    0.417
15237 H2 14.728 42.263 -27.866 ho 3051 TIP3_3051    0.417
15238 OH2 5.918 51.815 -23.533 oh 3052 TIP3_3052   -0.834
15239 H1 6.359 51.038 -23.268 ho 3052 TIP3_3052    0.417
15240 H2 5.366 52.062 -22.724 ho 3052 TIP3_3052    0.417
15241 OH2 10.161 42.429 -26.877 oh 3053 TIP3_3053   -0.834
15242 H1 10.258 41.473 -26.987 ho 3053 TIP3_3053    0.417
15243 H2 10.162 42.673 -27.852 ho 3053 TIP3_3053    0.417
15244 OH2 8.985 37.320 -31.033 oh 3054 TIP3_3054   -0.834
15245 H1 8.589 37.061 -30.182 ho 3054 TIP3_3054    0.417
15246 H2 9.317 36.508 -31.470 ho 3054 TIP3_3054    0.417
15247 OH2 5.673 36.001 -36.499 oh 3055 TIP3_3055   -0.834
15248 H1 5.445 35.104 -36.093 ho 3055 TIP3_3055    0.417
15249 H2 4.950 36.173 -37.173 ho 3055 TIP3_3055    0.417
15250 OH2 17.500 25.537 -33.913 oh 3056 TIP3_3056   -0.834
15251 H1 17.243 25.377 -32.978 ho 3056 TIP3_3056    0.417
15252 H2 18.481 25.337 -33.999 ho 3056 TIP3_3056    0.417
15253 OH2 20.707 38.177 -36.050 oh 3057 TIP3_3057   -0.834
15254 H1 21.469 38.748 -36.455 ho 3057 TIP3_3057    0.417
15255 H2 20.131 37.992 -36.789 ho 3057 TIP3_3057    0.417
15256 OH2 13.949 54.719 -39.076 oh 3058 TIP3_3058   -0.834
15257 H1 14.477 54.290 -39.783 ho 3058 TIP3_3058    0.417
15258 H2 14.699 55.048 -38.388 ho 3058 TIP3_3058    0.417
15259 OH2 19.084 39.121 -24.344 oh 3059 TIP3_3059   -0.834
15260 H1 18.411 38.562 -23.894 ho 3059 TIP3_3059    0.417
15261 H2 19.484 39.599 -23.594 ho 3059 TIP3_3059    0.417
15262 OH2 21.900 31.540 -25.187 oh 3060 TIP3_3060   -0.834
15263 H1 22.358 32.296 -25.580 ho 3060 TIP3_3060    0.417
15264 H2 22.650 30.857 -25.013 ho 3060 TIP3_3060    0.417
15265 OH2 7.275 41.438 -29.308 oh 3061 TIP3_3061   -0.834
15266 H1 7.945 40.758 -29.368 ho 3061 TIP3_3061    0.417
15267 H2 7.204 41.713 -30.258 ho 3061 TIP3_3061    0.417
15268 OH2 13.442 30.982 -36.211 oh 3062 TIP3_3062   -0.834
15269 H1 13.510 30.195 -35.620 ho 3062 TIP3_3062    0.417
15270 H2 14.384 30.978 -36.506 ho 3062 TIP3_3062    0.417
15271 OH2 9.951 54.246 -38.216 oh 3063 TIP3_3063   -0.834
15272 H1 10.492 54.897 -38.603 ho 3063 TIP3_3063    0.417
15273 H2 9.064 54.568 -38.502 ho 3063 TIP3_3063    0.417
15274 OH2 0.503 27.753 -23.035 oh 3064 TIP3_3064   -0.834
15275 H1 0.005 28.594 -23.081 ho 3064 TIP3_3064    0.417
15276 H2 0.901 27.782 -23.914 ho 3064 TIP3_3064    0.417
15277 OH2 0.090 47.311 -29.209 oh 3065 TIP3_3065   -0.834
15278 H1 0.958 47.594 -29.665 ho 3065 TIP3_3065    0.417
15279 H2 0.437 46.952 -28.332 ho 3065 TIP3_3065    0.417
15280 OH2 23.315 54.205 -21.048 oh 3066 TIP3_3066   -0.834
15281 H1 23.174 53.659 -21.813 ho 3066 TIP3_3066    0.417
15282 H2 22.666 53.930 -20.393 ho 3066 TIP3_3066    0.417
15283 OH2 23.476 45.814 -36.488 oh 3067 TIP3_3067   -0.834
15284 H1 24.166 45.524 -37.124 ho 3067 TIP3_3067    0.417
15285 H2 22.748 46.050 -37.059 ho 3067 TIP3_3067    0.417
15286 OH2 6.985 29.799 -38.696 oh 3068 TIP3_3068   -0.834
15287 H1 6.753 29.883 -37.729 ho 3068 TIP3_3068    0.417
15288 H2 6.077 29.788 -39.151 ho 3068 TIP3_3068    0.417
15289 OH2 12.815 31.574 -26.045 oh 3069 TIP3_3069   -0.834
15290 H1 11.975 32.102 -26.101 ho 3069 TIP3_3069    0.417
15291 H2 13.523 32.137 -25.927 ho 3069 TIP3_3069    0.417
15292 OH2 11.688 29.271 -22.742 oh 3070 TIP3_3070   -0.834
15293 H1 11.893 29.130 -23.654 ho 3070 TIP3_3070    0.417
15294 H2 10.924 28.733 -22.556 ho 3070 TIP3_3070    0.417
15295 OH2 8.465 32.502 -32.880 oh 3071 TIP3_3071   -0.834
15296 H1 8.340 32.129 -33.808 ho 3071 TIP3_3071    0.417
15297 H2 8.740 31.733 -32.324 ho 3071 TIP3_3071    0.417
15298 OH2 3.314 56.034 -33.488 oh 3072 TIP3_3072   -0.834
15299 H1 3.977 55.813 -32.830 ho 3072 TIP3_3072    0.417
15300 H2 2.711 55.233 -33.413 ho 3072 TIP3_3072    0.417
15301 OH2 1.984 32.001 -23.420 oh 3073 TIP3_3073   -0.834
15302 H1 2.702 31.337 -23.242 ho 3073 TIP3_3073    0.417
15303 H2 1.454 32.048 -22.596 ho 3073 TIP3_3073    0.417
15304 OH2 20.282 52.297 -39.127 oh 3074 TIP3_3074   -0.834
15305 H1 20.889 52.442 -39.939 ho 3074 TIP3_3074    0.417
15306 H2 19.429 52.639 -39.411 ho 3074 TIP3_3074    0.417
15307 OH2 17.114 35.684 -30.868 oh 3075 TIP3_3075   -0.834
15308 H1 17.347 36.584 -31.182 ho 3075 TIP3_3075    0.417
15309 H2 16.198 35.692 -30.511 ho 3075 TIP3_3075    0.417
15310 OH2 19.346 57.312 -28.061 oh 3076 TIP3_3076   -0.834
15311 H1 18.408 57.598 -28.012 ho 3076 TIP3_3076    0.417
15312 H2 19.277 56.345 -28.125 ho 3076 TIP3_3076    0.417
15313 OH2 19.285 27.433 -21.268 oh 3077 TIP3_3077   -0.834
15314 H1 19.859 26.902 -20.584 ho 3077 TIP3_3077    0.417
15315 H2 19.885 28.154 -21.516 ho 3077 TIP3_3077    0.417
15316 OH2 6.156 49.433 -38.883 oh 3078 TIP3_3078   -0.834
15317 H1 5.846 49.181 -37.998 ho 3078 TIP3_3078    0.417
15318 H2 6.896 48.831 -38.923 ho 3078 TIP3_3078    0.417
15319 OH2 10.432 26.980 -29.677 oh 3079 TIP3_3079   -0.834
15320 H1 11.211 27.551 -29.542 ho 3079 TIP3_3079    0.417
15321 H2 10.507 26.348 -28.903 ho 3079 TIP3_3079    0.417
15322 OH2 23.536 42.105 -37.336 oh 3080 TIP3_3080   -0.834
15323 H1 23.064 41.304 -37.073 ho 3080 TIP3_3080    0.417
15324 H2 22.862 42.456 -37.955 ho 3080 TIP3_3080    0.417
15325 OH2 1.690 38.147 -30.123 oh 3081 TIP3_3081   -0.834
15326 H1 2.483 37.578 -29.872 ho 3081 TIP3_3081    0.417
15327 H2 1.446 38.531 -29.181 ho 3081 TIP3_3081    0.417
15328 OH2 40.719 17.591 -27.788 oh 3082 TIP3_3082   -0.834
15329 H1 40.682 18.536 -27.947 ho 3082 TIP3_3082    0.417
15330 H2 40.841 17.130 -28.709 ho 3082 TIP3_3082    0.417
15331 OH2 38.850 6.054 -24.066 oh 3083 TIP3_3083   -0.834
15332 H1 39.176 6.533 -24.844 ho 3083 TIP3_3083    0.417
15333 H2 38.308 5.414 -24.550 ho 3083 TIP3_3083    0.417
15334 OH2 31.385 0.655 -32.517 oh 3084 TIP3_3084   -0.834
15335 H1 31.585 0.839 -33.461 ho 3084 TIP3_3084    0.417
15336 H2 30.725 1.337 -32.270 ho 3084 TIP3_3084    0.417
15337 OH2 25.792 3.251 -22.977 oh 3085 TIP3_3085   -0.834
15338 H1 25.967 3.811 -23.808 ho 3085 TIP3_3085    0.417
15339 H2 25.322 2.534 -23.339 ho 3085 TIP3_3085    0.417
15340 OH2 36.334 1.903 -28.696 oh 3086 TIP3_3086   -0.834
15341 H1 35.767 2.696 -28.424 ho 3086 TIP3_3086    0.417
15342 H2 36.791 1.796 -27.911 ho 3086 TIP3_3086    0.417
15343 OH2 45.882 6.566 -32.500 oh 3087 TIP3_3087   -0.834
15344 H1 46.771 6.259 -32.636 ho 3087 TIP3_3087    0.417
15345 H2 46.048 7.516 -32.610 ho 3087 TIP3_3087    0.417
15346 OH2 42.883 19.213 -24.682 oh 3088 TIP3_3088   -0.834
15347 H1 43.474 19.860 -24.269 ho 3088 TIP3_3088    0.417
15348 H2 42.611 19.664 -25.564 ho 3088 TIP3_3088    0.417
15349 OH2 31.343 16.202 -32.286 oh 3089 TIP3_3089   -0.834
15350 H1 30.692 16.681 -31.734 ho 3089 TIP3_3089    0.417
15351 H2 32.205 16.193 -31.791 ho 3089 TIP3_3089    0.417
15352 OH2 47.821 9.248 -25.771 oh 3090 TIP3_3090   -0.834
15353 H1 47.847 8.705 -24.945 ho 3090 TIP3_3090    0.417
15354 H2 47.283 10.020 -25.359 ho 3090 TIP3_3090    0.417
15355 OH2 41.078 3.219 -23.537 oh 3091 TIP3_3091   -0.834
15356 H1 40.270 3.606 -23.810 ho 3091 TIP3_3091    0.417
15357 H2 41.487 3.107 -24.419 ho 3091 TIP3_3091    0.417
15358 OH2 46.263 11.061 -28.655 oh 3092 TIP3_3092   -0.834
15359 H1 46.685 11.021 -29.517 ho 3092 TIP3_3092    0.417
15360 H2 45.886 10.164 -28.555 ho 3092 TIP3_3092    0.417
15361 OH2 32.294 5.336 -35.568 oh 3093 TIP3_3093   -0.834
15362 H1 32.542 6.062 -35.086 ho 3093 TIP3_3093    0.417
15363 H2 33.120 4.814 -35.585 ho 3093 TIP3_3093    0.417
15364 OH2 44.470 16.713 -31.505 oh 3094 TIP3_3094   -0.834
15365 H1 44.114 15.840 -31.520 ho 3094 TIP3_3094    0.417
15366 H2 44.812 16.945 -30.602 ho 3094 TIP3_3094    0.417
15367 OH2 31.648 1.409 -20.992 oh 3095 TIP3_3095   -0.834
15368 H1 32.044 2.167 -20.499 ho 3095 TIP3_3095    0.417
15369 H2 31.990 1.530 -21.849 ho 3095 TIP3_3095    0.417
15370 OH2 47.736 0.421 -34.182 oh 3096 TIP3_3096   -0.834
15371 H1 47.831 -0.278 -34.918 ho 3096 TIP3_3096    0.417
15372 H2 46.816 0.685 -34.148 ho 3096 TIP3_3096    0.417
15373 OH2 45.228 12.963 -38.198 oh 3097 TIP3_3097   -0.834
15374 H1 44.371 13.319 -37.904 ho 3097 TIP3_3097    0.417
15375 H2 45.139 12.007 -38.337 ho 3097 TIP3_3097    0.417
15376 OH2 33.117 8.380 -37.732 oh 3098 TIP3_3098   -0.834
15377 H1 32.585 8.594 -37.008 ho 3098 TIP3_3098    0.417
15378 H2 33.857 9.005 -37.527 ho 3098 TIP3_3098    0.417
15379 OH2 31.390 4.666 -32.829 oh 3099 TIP3_3099   -0.834
15380 H1 31.789 4.750 -33.709 ho 3099 TIP3_3099    0.417
15381 H2 30.913 5.472 -32.758 ho 3099 TIP3_3099    0.417
15382 OH2 33.932 2.387 -31.991 oh 3100 TIP3_3100   -0.834
15383 H1 33.209 2.019 -31.389 ho 3100 TIP3_3100    0.417
15384 H2 34.762 1.895 -31.786 ho 3100 TIP3_3100    0.417
15385 OH2 27.763 1.896 -27.696 oh 3101 TIP3_3101   -0.834
15386 H1 28.401 1.364 -28.255 ho 3101 TIP3_3101    0.417
15387 H2 27.751 2.725 -28.141 ho 3101 TIP3_3101    0.417
15388 OH2 35.209 1.935 -38.027 oh 3102 TIP3_3102   -0.834
15389 H1 34.397 2.288 -38.480 ho 3102 TIP3_3102    0.417
15390 H2 35.523 2.672 -37.376 ho 3102 TIP3_3102    0.417
15391 OH2 25.345 21.967 -28.809 oh 3103 TIP3_3103   -0.834
15392 H1 25.480 21.155 -28.253 ho 3103 TIP3_3103    0.417
15393 H2 25.942 22.627 -28.428 ho 3103 TIP3_3103    0.417
15394 OH2 35.911 20.480 -32.505 oh 3104 TIP3_3104   -0.834
15395 H1 36.787 20.457 -32.949 ho 3104 TIP3_3104    0.417
15396 H2 35.352 19.972 -33.098 ho 3104 TIP3_3104    0.417
15397 OH2 41.846 0.884 -22.277 oh 3105 TIP3_3105   -0.834
15398 H1 41.543 0.668 -23.194 ho 3105 TIP3_3105    0.417
15399 H2 41.469 1.717 -22.238 ho 3105 TIP3_3105    0.417
15400 OH2 30.112 23.289 -28.040 oh 3106 TIP3_3106   -0.834
15401 H1 30.437 22.364 -27.949 ho 3106 TIP3_3106    0.417
15402 H2 30.691 23.920 -27.576 ho 3106 TIP3_3106    0.417
15403 OH2 29.818 11.858 -22.213 oh 3107 TIP3_3107   -0.834
15404 H1 29.146 11.220 -22.533 ho 3107 TIP3_3107    0.417
15405 H2 29.984 11.600 -21.315 ho 3107 TIP3_3107    0.417
15406 OH2 45.360 13.907 -30.832 oh 3108 TIP3_3108   -0.834
15407 H1 44.670 13.507 -31.359 ho 3108 TIP3_3108    0.417
15408 H2 46.196 13.705 -31.355 ho 3108 TIP3_3108    0.417
15409 OH2 47.157 1.309 -29.345 oh 3109 TIP3_3109   -0.834
15410 H1 47.113 0.340 -29.410 ho 3109 TIP3_3109    0.417
15411 H2 46.349 1.567 -29.887 ho 3109 TIP3_3109    0.417
15412 OH2 48.390 4.506 -26.870 oh 3110 TIP3_3110   -0.834
15413 H1 49.282 4.326 -27.288 ho 3110 TIP3_3110    0.417
15414 H2 47.986 5.210 -27.391 ho 3110 TIP3_3110    0.417
15415 OH2 32.818 22.343 -25.565 oh 3111 TIP3_3111   -0.834
15416 H1 32.262 23.099 -25.487 ho 3111 TIP3_3111    0.417
15417 H2 33.448 22.497 -24.819 ho 3111 TIP3_3111    0.417
15418 OH2 33.132 20.549 -30.312 oh 3112 TIP3_3112   -0.834
15419 H1 32.279 20.725 -30.755 ho 3112 TIP3_3112    0.417
15420 H2 33.203 21.280 -29.667 ho 3112 TIP3_3112    0.417
15421 OH2 29.993 20.798 -25.362 oh 3113 TIP3_3113   -0.834
15422 H1 30.145 21.660 -24.999 ho 3113 TIP3_3113    0.417
15423 H2 29.066 20.542 -25.070 ho 3113 TIP3_3113    0.417
15424 OH2 36.664 24.522 -35.675 oh 3114 TIP3_3114   -0.834
15425 H1 36.676 23.614 -35.430 ho 3114 TIP3_3114    0.417
15426 H2 37.403 24.864 -35.243 ho 3114 TIP3_3114    0.417
15427 OH2 47.780 7.600 -23.433 oh 3115 TIP3_3115   -0.834
15428 H1 47.151 7.517 -22.703 ho 3115 TIP3_3115    0.417
15429 H2 48.032 6.657 -23.633 ho 3115 TIP3_3115    0.417
15430 OH2 32.973 12.457 -39.162 oh 3116 TIP3_3116   -0.834
15431 H1 32.955 12.961 -38.300 ho 3116 TIP3_3116    0.417
15432 H2 32.135 12.732 -39.609 ho 3116 TIP3_3116    0.417
15433 OH2 36.178 17.663 -24.141 oh 3117 TIP3_3117   -0.834
15434 H1 36.506 17.534 -25.015 ho 3117 TIP3_3117    0.417
15435 H2 36.433 16.867 -23.715 ho 3117 TIP3_3117    0.417
15436 OH2 40.865 21.802 -30.817 oh 3118 TIP3_3118   -0.834
15437 H1 40.665 21.170 -30.139 ho 3118 TIP3_3118    0.417
15438 H2 41.272 22.458 -30.267 ho 3118 TIP3_3118    0.417
15439 OH2 27.353 23.641 -27.371 oh 3119 TIP3_3119   -0.834
15440 H1 28.026 23.092 -27.729 ho 3119 TIP3_3119    0.417
15441 H2 27.312 24.384 -27.982 ho 3119 TIP3_3119    0.417
15442 OH2 32.660 21.281 -22.030 oh 3120 TIP3_3120   -0.834
15443 H1 32.948 20.520 -21.589 ho 3120 TIP3_3120    0.417
15444 H2 32.229 20.967 -22.857 ho 3120 TIP3_3120    0.417
15445 OH2 49.169 6.178 -32.907 oh 3121 TIP3_3121   -0.834
15446 H1 49.122 6.962 -33.524 ho 3121 TIP3_3121    0.417
15447 H2 48.761 5.528 -33.519 ho 3121 TIP3_3121    0.417
15448 OH2 26.522 4.688 -25.200 oh 3122 TIP3_3122   -0.834
15449 H1 26.524 5.417 -25.842 ho 3122 TIP3_3122    0.417
15450 H2 27.430 4.403 -24.980 ho 3122 TIP3_3122    0.417
15451 OH2 36.554 13.325 -23.695 oh 3123 TIP3_3123   -0.834
15452 H1 36.948 12.932 -22.845 ho 3123 TIP3_3123    0.417
15453 H2 37.392 13.669 -24.118 ho 3123 TIP3_3123    0.417
15454 OH2 26.796 10.376 -33.042 oh 3124 TIP3_3124   -0.834
15455 H1 25.862 10.378 -33.378 ho 3124 TIP3_3124    0.417
15456 H2 27.182 11.170 -33.647 ho 3124 TIP3_3124    0.417
15457 OH2 25.983 17.576 -21.771 oh 3125 TIP3_3125   -0.834
15458 H1 26.156 18.464 -21.388 ho 3125 TIP3_3125    0.417
15459 H2 25.944 16.931 -21.024 ho 3125 TIP3_3125    0.417
15460 OH2 33.041 19.531 -26.523 oh 3126 TIP3_3126   -0.834
15461 H1 32.739 20.488 -26.495 ho 3126 TIP3_3126    0.417
15462 H2 33.474 19.495 -25.663 ho 3126 TIP3_3126    0.417
15463 OH2 35.043 11.852 -26.288 oh 3127 TIP3_3127   -0.834
15464 H1 35.828 12.292 -25.846 ho 3127 TIP3_3127    0.417
15465 H2 34.329 12.362 -26.055 ho 3127 TIP3_3127    0.417
15466 OH2 38.017 22.629 -33.038 oh 3128 TIP3_3128   -0.834
15467 H1 38.732 22.022 -33.327 ho 3128 TIP3_3128    0.417
15468 H2 38.397 23.137 -32.332 ho 3128 TIP3_3128    0.417
15469 OH2 40.184 18.694 -22.304 oh 3129 TIP3_3129   -0.834
15470 H1 41.173 18.731 -22.130 ho 3129 TIP3_3129    0.417
15471 H2 40.000 17.767 -22.165 ho 3129 TIP3_3129    0.417
15472 OH2 29.594 0.266 -24.800 oh 3130 TIP3_3130   -0.834
15473 H1 28.638 0.500 -24.804 ho 3130 TIP3_3130    0.417
15474 H2 29.758 -0.103 -25.688 ho 3130 TIP3_3130    0.417
15475 OH2 26.521 12.571 -24.668 oh 3131 TIP3_3131   -0.834
15476 H1 27.242 12.486 -25.349 ho 3131 TIP3_3131    0.417
15477 H2 26.940 13.181 -23.995 ho 3131 TIP3_3131    0.417
15478 OH2 49.093 3.900 -21.456 oh 3132 TIP3_3132   -0.834
15479 H1 48.326 4.488 -21.234 ho 3132 TIP3_3132    0.417
15480 H2 49.228 3.394 -20.588 ho 3132 TIP3_3132    0.417
15481 OH2 45.518 18.583 -33.287 oh 3133 TIP3_3133   -0.834
15482 H1 44.816 18.530 -33.973 ho 3133 TIP3_3133    0.417
15483 H2 45.417 17.706 -32.797 ho 3133 TIP3_3133    0.417
15484 OH2 30.048 22.079 -39.228 oh 3134 TIP3_3134   -0.834
15485 H1 30.966 22.132 -38.908 ho 3134 TIP3_3134    0.417
15486 H2 29.892 21.140 -39.277 ho 3134 TIP3_3134    0.417
15487 OH2 33.136 12.527 -32.535 oh 3135 TIP3_3135   -0.834
15488 H1 32.853 13.042 -31.719 ho 3135 TIP3_3135    0.417
15489 H2 33.653 11.807 -32.108 ho 3135 TIP3_3135    0.417
15490 OH2 48.782 14.218 -26.907 oh 3136 TIP3_3136   -0.834
15491 H1 48.139 14.036 -27.637 ho 3136 TIP3_3136    0.417
15492 H2 49.011 13.329 -26.606 ho 3136 TIP3_3136    0.417
15493 OH2 32.125 1.008 -23.795 oh 3137 TIP3_3137   -0.834
15494 H1 32.305 1.912 -24.006 ho 3137 TIP3_3137    0.417
15495 H2 31.285 0.889 -24.266 ho 3137 TIP3_3137    0.417
15496 OH2 29.056 19.465 -27.504 oh 3138 TIP3_3138   -0.834
15497 H1 29.416 19.916 -26.774 ho 3138 TIP3_3138    0.417
15498 H2 29.896 19.353 -28.057 ho 3138 TIP3_3138    0.417
15499 OH2 31.000 7.305 -32.945 oh 3139 TIP3_3139   -0.834
15500 H1 30.423 7.996 -33.267 ho 3139 TIP3_3139    0.417
15501 H2 31.806 7.807 -32.633 ho 3139 TIP3_3139    0.417
15502 OH2 39.837 20.257 -28.293 oh 3140 TIP3_3140   -0.834
15503 H1 39.031 20.382 -27.783 ho 3140 TIP3_3140    0.417
15504 H2 39.420 20.111 -29.174 ho 3140 TIP3_3140    0.417
15505 OH2 43.812 4.340 -37.251 oh 3141 TIP3_3141   -0.834
15506 H1 43.883 4.394 -36.323 ho 3141 TIP3_3141    0.417
15507 H2 42.931 3.859 -37.453 ho 3141 TIP3_3141    0.417
15508 OH2 28.659 11.945 -26.365 oh 3142 TIP3_3142   -0.834
15509 H1 28.369 11.694 -27.252 ho 3142 TIP3_3142    0.417
15510 H2 29.611 11.868 -26.432 ho 3142 TIP3_3142    0.417
15511 OH2 48.350 0.426 -37.351 oh 3143 TIP3_3143   -0.834
15512 H1 49.136 0.667 -37.925 ho 3143 TIP3_3143    0.417
15513 H2 47.685 1.158 -37.650 ho 3143 TIP3_3143    0.417
15514 OH2 47.992 18.839 -39.452 oh 3144 TIP3_3144   -0.834
15515 H1 47.682 19.754 -39.802 ho 3144 TIP3_3144    0.417
15516 H2 48.422 19.074 -38.622 ho 3144 TIP3_3144    0.417
15517 OH2 31.165 22.021 -34.703 oh 3145 TIP3_3145   -0.834
15518 H1 31.377 21.694 -33.866 ho 3145 TIP3_3145    0.417
15519 H2 31.345 21.232 -35.208 ho 3145 TIP3_3145    0.417
15520 OH2 39.366 13.228 -24.039 oh 3146 TIP3_3146   -0.834
15521 H1 40.232 13.021 -24.330 ho 3146 TIP3_3146    0.417
15522 H2 39.076 12.386 -23.652 ho 3146 TIP3_3146    0.417
15523 OH2 46.374 23.285 -27.863 oh 3147 TIP3_3147   -0.834
15524 H1 46.084 24.250 -27.965 ho 3147 TIP3_3147    0.417
15525 H2 47.040 23.124 -28.481 ho 3147 TIP3_3147    0.417
15526 OH2 37.889 4.660 -30.913 oh 3148 TIP3_3148   -0.834
15527 H1 37.578 4.796 -30.025 ho 3148 TIP3_3148    0.417
15528 H2 38.764 4.337 -30.788 ho 3148 TIP3_3148    0.417
15529 OH2 44.644 -0.004 -39.477 oh 3149 TIP3_3149   -0.834
15530 H1 44.757 0.535 -38.635 ho 3149 TIP3_3149    0.417
15531 H2 45.557 -0.259 -39.711 ho 3149 TIP3_3149    0.417
15532 OH2 48.587 8.492 -34.424 oh 3150 TIP3_3150   -0.834
15533 H1 47.950 8.226 -35.085 ho 3150 TIP3_3150    0.417
15534 H2 48.460 9.481 -34.329 ho 3150 TIP3_3150    0.417
15535 OH2 33.603 16.023 -29.102 oh 3151 TIP3_3151   -0.834
15536 H1 32.641 16.044 -28.873 ho 3151 TIP3_3151    0.417
15537 H2 33.705 16.607 -29.936 ho 3151 TIP3_3151    0.417
15538 OH2 37.614 2.273 -26.304 oh 3152 TIP3_3152   -0.834
15539 H1 38.124 2.950 -26.693 ho 3152 TIP3_3152    0.417
15540 H2 37.068 2.765 -25.707 ho 3152 TIP3_3152    0.417
15541 OH2 39.757 16.859 -33.881 oh 3153 TIP3_3153   -0.834
15542 H1 40.038 17.594 -34.493 ho 3153 TIP3_3153    0.417
15543 H2 39.273 16.313 -34.489 ho 3153 TIP3_3153    0.417
15544 OH2 36.994 10.054 -33.253 oh 3154 TIP3_3154   -0.834
15545 H1 37.413 10.009 -34.151 ho 3154 TIP3_3154    0.417
15546 H2 37.344 10.913 -32.919 ho 3154 TIP3_3154    0.417
15547 OH2 42.995 0.202 -29.577 oh 3155 TIP3_3155   -0.834
15548 H1 43.853 0.548 -29.739 ho 3155 TIP3_3155    0.417
15549 H2 43.158 -0.558 -28.926 ho 3155 TIP3_3155    0.417
15550 OH2 47.429 19.454 -22.930 oh 3156 TIP3_3156   -0.834
15551 H1 48.218 19.924 -23.297 ho 3156 TIP3_3156    0.417
15552 H2 47.090 19.106 -23.748 ho 3156 TIP3_3156    0.417
15553 OH2 44.832 4.792 -34.480 oh 3157 TIP3_3157   -0.834
15554 H1 45.273 5.362 -33.807 ho 3157 TIP3_3157    0.417
15555 H2 44.367 4.183 -33.951 ho 3157 TIP3_3157    0.417
15556 OH2 42.905 3.143 -33.552 oh 3158 TIP3_3158   -0.834
15557 H1 42.174 3.506 -34.038 ho 3158 TIP3_3158    0.417
15558 H2 42.474 2.472 -33.020 ho 3158 TIP3_3158    0.417
15559 OH2 40.688 0.619 -24.974 oh 3159 TIP3_3159   -0.834
15560 H1 39.708 0.775 -25.087 ho 3159 TIP3_3159    0.417
15561 H2 40.726 -0.312 -25.303 ho 3159 TIP3_3159    0.417
15562 OH2 43.805 7.960 -27.480 oh 3160 TIP3_3160   -0.834
15563 H1 44.297 7.167 -27.218 ho 3160 TIP3_3160    0.417
15564 H2 44.555 8.610 -27.281 ho 3160 TIP3_3160    0.417
15565 OH2 42.146 15.723 -26.471 oh 3161 TIP3_3161   -0.834
15566 H1 42.875 15.782 -27.111 ho 3161 TIP3_3161    0.417
15567 H2 41.536 16.408 -26.798 ho 3161 TIP3_3161    0.417
15568 OH2 33.233 13.772 -36.664 oh 3162 TIP3_3162   -0.834
15569 H1 33.799 13.275 -36.113 ho 3162 TIP3_3162    0.417
15570 H2 32.918 14.471 -36.044 ho 3162 TIP3_3162    0.417
15571 OH2 29.207 19.540 -22.450 oh 3163 TIP3_3163   -0.834
15572 H1 29.305 18.941 -21.732 ho 3163 TIP3_3163    0.417
15573 H2 29.239 20.422 -22.035 ho 3163 TIP3_3163    0.417
15574 OH2 36.537 19.763 -37.886 oh 3164 TIP3_3164   -0.834
15575 H1 35.949 20.152 -38.520 ho 3164 TIP3_3164    0.417
15576 H2 37.347 19.883 -38.307 ho 3164 TIP3_3164    0.417
15577 OH2 42.433 9.841 -35.855 oh 3165 TIP3_3165   -0.834
15578 H1 41.751 10.502 -35.543 ho 3165 TIP3_3165    0.417
15579 H2 41.972 9.395 -36.596 ho 3165 TIP3_3165    0.417
15580 OH2 45.704 24.012 -34.426 oh 3166 TIP3_3166   -0.834
15581 H1 46.272 24.652 -33.970 ho 3166 TIP3_3166    0.417
15582 H2 44.977 23.934 -33.804 ho 3166 TIP3_3166    0.417
15583 OH2 43.511 12.143 -31.665 oh 3167 TIP3_3167   -0.834
15584 H1 44.070 11.307 -31.849 ho 3167 TIP3_3167    0.417
15585 H2 43.207 11.991 -30.695 ho 3167 TIP3_3167    0.417
15586 OH2 36.606 2.709 -22.393 oh 3168 TIP3_3168   -0.834
15587 H1 36.696 1.784 -22.445 ho 3168 TIP3_3168    0.417
15588 H2 36.846 2.850 -21.482 ho 3168 TIP3_3168    0.417
15589 OH2 26.387 7.752 -38.148 oh 3169 TIP3_3169   -0.834
15590 H1 27.239 7.757 -38.474 ho 3169 TIP3_3169    0.417
15591 H2 26.516 7.728 -37.200 ho 3169 TIP3_3169    0.417
15592 OH2 41.192 22.313 -23.042 oh 3170 TIP3_3170   -0.834
15593 H1 42.036 22.219 -22.537 ho 3170 TIP3_3170    0.417
15594 H2 41.072 21.457 -23.484 ho 3170 TIP3_3170    0.417
15595 OH2 43.836 15.273 -28.731 oh 3171 TIP3_3171   -0.834
15596 H1 43.582 14.686 -29.449 ho 3171 TIP3_3171    0.417
15597 H2 44.725 14.921 -28.533 ho 3171 TIP3_3171    0.417
15598 OH2 30.885 10.212 -32.437 oh 3172 TIP3_3172   -0.834
15599 H1 30.509 10.849 -33.109 ho 3172 TIP3_3172    0.417
15600 H2 31.802 10.079 -32.688 ho 3172 TIP3_3172    0.417
15601 OH2 34.345 6.960 -34.096 oh 3173 TIP3_3173   -0.834
15602 H1 34.488 6.566 -33.167 ho 3173 TIP3_3173    0.417
15603 H2 33.899 7.828 -33.960 ho 3173 TIP3_3173    0.417
15604 OH2 30.341 4.958 -27.817 oh 3174 TIP3_3174   -0.834
15605 H1 29.511 4.806 -28.267 ho 3174 TIP3_3174    0.417
15606 H2 30.757 5.640 -28.384 ho 3174 TIP3_3174    0.417
15607 OH2 40.001 7.510 -26.474 oh 3175 TIP3_3175   -0.834
15608 H1 40.077 8.137 -27.235 ho 3175 TIP3_3175    0.417
15609 H2 40.856 7.607 -26.037 ho 3175 TIP3_3175    0.417
15610 OH2 34.334 18.306 -33.997 oh 3176 TIP3_3176   -0.834
15611 H1 34.855 17.694 -34.579 ho 3176 TIP3_3176    0.417
15612 H2 33.670 18.593 -34.635 ho 3176 TIP3_3176    0.417
15613 OH2 46.977 22.879 -24.689 oh 3177 TIP3_3177   -0.834
15614 H1 47.676 22.556 -24.016 ho 3177 TIP3_3177    0.417
15615 H2 47.424 23.459 -25.355 ho 3177 TIP3_3177    0.417
15616 OH2 46.223 17.537 -24.559 oh 3178 TIP3_3178   -0.834
15617 H1 46.639 16.886 -25.196 ho 3178 TIP3_3178    0.417
15618 H2 45.229 17.457 -24.608 ho 3178 TIP3_3178    0.417
15619 OH2 37.282 19.684 -26.371 oh 3179 TIP3_3179   -0.834
15620 H1 36.647 19.737 -25.654 ho 3179 TIP3_3179    0.417
15621 H2 38.168 19.471 -25.990 ho 3179 TIP3_3179    0.417
15622 OH2 40.113 9.268 -32.565 oh 3180 TIP3_3180   -0.834
15623 H1 39.550 8.507 -32.345 ho 3180 TIP3_3180    0.417
15624 H2 40.189 9.702 -31.685 ho 3180 TIP3_3180    0.417
15625 OH2 27.344 19.464 -24.765 oh 3181 TIP3_3181   -0.834
15626 H1 27.536 19.598 -23.863 ho 3181 TIP3_3181    0.417
15627 H2 27.529 18.490 -24.864 ho 3181 TIP3_3181    0.417
15628 OH2 46.975 5.136 -36.634 oh 3182 TIP3_3182   -0.834
15629 H1 46.739 4.870 -35.758 ho 3182 TIP3_3182    0.417
15630 H2 46.767 6.134 -36.723 ho 3182 TIP3_3182    0.417
15631 OH2 30.886 18.258 -24.191 oh 3183 TIP3_3183   -0.834
15632 H1 31.121 18.621 -25.041 ho 3183 TIP3_3183    0.417
15633 H2 30.489 18.950 -23.712 ho 3183 TIP3_3183    0.417
15634 OH2 46.955 7.145 -27.880 oh 3184 TIP3_3184   -0.834
15635 H1 47.028 7.757 -27.174 ho 3184 TIP3_3184    0.417
15636 H2 47.702 7.400 -28.501 ho 3184 TIP3_3184    0.417
15637 OH2 39.549 22.520 -36.000 oh 3185 TIP3_3185   -0.834
15638 H1 39.825 23.270 -36.502 ho 3185 TIP3_3185    0.417
15639 H2 40.059 22.529 -35.122 ho 3185 TIP3_3185    0.417
15640 OH2 45.290 14.044 -24.402 oh 3186 TIP3_3186   -0.834
15641 H1 44.334 14.056 -24.347 ho 3186 TIP3_3186    0.417
15642 H2 45.536 14.607 -25.161 ho 3186 TIP3_3186    0.417
15643 OH2 26.364 9.101 -30.624 oh 3187 TIP3_3187   -0.834
15644 H1 25.422 9.237 -30.695 ho 3187 TIP3_3187    0.417
15645 H2 26.753 9.697 -31.307 ho 3187 TIP3_3187    0.417
15646 OH2 42.372 20.813 -34.973 oh 3188 TIP3_3188   -0.834
15647 H1 43.130 20.722 -34.350 ho 3188 TIP3_3188    0.417
15648 H2 41.752 21.462 -34.460 ho 3188 TIP3_3188    0.417
15649 OH2 37.311 22.192 -27.862 oh 3189 TIP3_3189   -0.834
15650 H1 37.286 21.320 -27.558 ho 3189 TIP3_3189    0.417
15651 H2 37.752 22.698 -27.102 ho 3189 TIP3_3189    0.417
15652 OH2 31.961 14.565 -25.381 oh 3190 TIP3_3190   -0.834
15653 H1 31.156 14.815 -25.060 ho 3190 TIP3_3190    0.417
15654 H2 32.479 15.303 -24.996 ho 3190 TIP3_3190    0.417
15655 OH2 26.812 15.628 -35.506 oh 3191 TIP3_3191   -0.834
15656 H1 27.229 16.541 -35.606 ho 3191 TIP3_3191    0.417
15657 H2 26.704 15.517 -34.564 ho 3191 TIP3_3191    0.417
15658 OH2 36.049 15.216 -32.509 oh 3192 TIP3_3192   -0.834
15659 H1 36.572 15.731 -31.877 ho 3192 TIP3_3192    0.417
15660 H2 35.082 15.531 -32.340 ho 3192 TIP3_3192    0.417
15661 OH2 41.419 6.379 -35.573 oh 3193 TIP3_3193   -0.834
15662 H1 41.503 6.761 -34.716 ho 3193 TIP3_3193    0.417
15663 H2 41.337 5.424 -35.426 ho 3193 TIP3_3193    0.417
15664 OH2 31.703 1.593 -35.152 oh 3194 TIP3_3194   -0.834
15665 H1 32.407 2.207 -35.239 ho 3194 TIP3_3194    0.417
15666 H2 31.716 1.068 -35.987 ho 3194 TIP3_3194    0.417
15667 OH2 44.659 0.552 -22.551 oh 3195 TIP3_3195   -0.834
15668 H1 45.182 1.346 -22.501 ho 3195 TIP3_3195    0.417
15669 H2 43.734 0.858 -22.619 ho 3195 TIP3_3195    0.417
15670 OH2 47.263 13.788 -36.029 oh 3196 TIP3_3196   -0.834
15671 H1 48.127 14.127 -36.167 ho 3196 TIP3_3196    0.417
15672 H2 46.659 14.087 -36.835 ho 3196 TIP3_3196    0.417
15673 OH2 45.657 16.401 -22.137 oh 3197 TIP3_3197   -0.834
15674 H1 44.698 16.314 -22.175 ho 3197 TIP3_3197    0.417
15675 H2 45.848 17.114 -22.741 ho 3197 TIP3_3197    0.417
15676 OH2 25.490 22.891 -22.367 oh 3198 TIP3_3198   -0.834
15677 H1 25.388 23.313 -23.211 ho 3198 TIP3_3198    0.417
15678 H2 26.419 22.984 -22.302 ho 3198 TIP3_3198    0.417
15679 OH2 33.203 22.561 -28.549 oh 3199 TIP3_3199   -0.834
15680 H1 33.088 22.437 -27.625 ho 3199 TIP3_3199    0.417
15681 H2 34.001 23.123 -28.610 ho 3199 TIP3_3199    0.417
15682 OH2 27.761 9.861 -22.664 oh 3200 TIP3_3200   -0.834
15683 H1 27.151 9.338 -22.118 ho 3200 TIP3_3200    0.417
15684 H2 27.648 9.491 -23.501 ho 3200 TIP3_3200    0.417
15685 OH2 42.201 7.642 -24.810 oh 3201 TIP3_3201   -0.834
15686 H1 42.791 8.341 -25.189 ho 3201 TIP3_3201    0.417
15687 H2 42.755 7.224 -24.113 ho 3201 TIP3_3201    0.417
15688 OH2 47.026 16.324 -38.496 oh 3202 TIP3_3202   -0.834
15689 H1 46.689 16.873 -37.790 ho 3202 TIP3_3202    0.417
15690 H2 47.646 17.008 -38.944 ho 3202 TIP3_3202    0.417
15691 OH2 36.428 21.867 -35.270 oh 3203 TIP3_3203   -0.834
15692 H1 36.889 21.683 -34.437 ho 3203 TIP3_3203    0.417
15693 H2 37.064 21.638 -35.942 ho 3203 TIP3_3203    0.417
15694 OH2 42.375 22.256 -38.762 oh 3204 TIP3_3204   -0.834
15695 H1 42.247 22.642 -39.661 ho 3204 TIP3_3204    0.417
15696 H2 42.844 22.995 -38.333 ho 3204 TIP3_3204    0.417
15697 OH2 35.178 17.338 -27.369 oh 3205 TIP3_3205   -0.834
15698 H1 34.615 17.051 -26.616 ho 3205 TIP3_3205    0.417
15699 H2 34.650 16.952 -28.123 ho 3205 TIP3_3205    0.417
15700 OH2 26.414 6.430 -27.698 oh 3206 TIP3_3206   -0.834
15701 H1 27.075 5.965 -28.249 ho 3206 TIP3_3206    0.417
15702 H2 26.742 7.354 -27.659 ho 3206 TIP3_3206    0.417
15703 OH2 41.470 3.089 -37.819 oh 3207 TIP3_3207   -0.834
15704 H1 41.854 2.230 -37.501 ho 3207 TIP3_3207    0.417
15705 H2 40.533 2.856 -37.912 ho 3207 TIP3_3207    0.417
15706 OH2 36.062 4.274 -35.814 oh 3208 TIP3_3208   -0.834
15707 H1 35.233 4.104 -35.328 ho 3208 TIP3_3208    0.417
15708 H2 36.736 4.011 -35.161 ho 3208 TIP3_3208    0.417
15709 OH2 48.031 4.489 -24.238 oh 3209 TIP3_3209   -0.834
15710 H1 48.931 4.176 -24.113 ho 3209 TIP3_3209    0.417
15711 H2 47.945 4.581 -25.203 ho 3209 TIP3_3209    0.417
15712 OH2 40.754 8.645 -28.855 oh 3210 TIP3_3210   -0.834
15713 H1 40.476 8.296 -29.696 ho 3210 TIP3_3210    0.417
15714 H2 41.717 8.556 -28.962 ho 3210 TIP3_3210    0.417
15715 OH2 47.516 20.353 -25.998 oh 3211 TIP3_3211   -0.834
15716 H1 47.240 21.202 -25.812 ho 3211 TIP3_3211    0.417
15717 H2 48.331 20.224 -25.409 ho 3211 TIP3_3211    0.417
15718 OH2 37.758 16.522 -29.032 oh 3212 TIP3_3212   -0.834
15719 H1 38.492 16.880 -29.605 ho 3212 TIP3_3212    0.417
15720 H2 37.155 17.290 -29.125 ho 3212 TIP3_3212    0.417
15721 OH2 34.263 3.274 -27.577 oh 3213 TIP3_3213   -0.834
15722 H1 33.946 3.886 -26.952 ho 3213 TIP3_3213    0.417
15723 H2 33.797 3.532 -28.415 ho 3213 TIP3_3213    0.417
15724 OH2 32.234 20.628 -37.805 oh 3214 TIP3_3214   -0.834
15725 H1 32.817 20.255 -38.472 ho 3214 TIP3_3214    0.417
15726 H2 32.811 21.302 -37.443 ho 3214 TIP3_3214    0.417
15727 OH2 28.005 4.797 -36.973 oh 3215 TIP3_3215   -0.834
15728 H1 27.830 3.988 -36.504 ho 3215 TIP3_3215    0.417
15729 H2 28.779 5.190 -36.587 ho 3215 TIP3_3215    0.417
15730 OH2 38.663 1.432 -33.471 oh 3216 TIP3_3216   -0.834
15731 H1 38.851 1.261 -32.518 ho 3216 TIP3_3216    0.417
15732 H2 38.355 2.375 -33.468 ho 3216 TIP3_3216    0.417
15733 OH2 46.862 2.684 -38.306 oh 3217 TIP3_3217   -0.834
15734 H1 46.911 3.691 -38.287 ho 3217 TIP3_3217    0.417
15735 H2 45.977 2.455 -38.015 ho 3217 TIP3_3217    0.417
15736 OH2 43.649 20.347 -37.345 oh 3218 TIP3_3218   -0.834
15737 H1 43.173 20.621 -36.487 ho 3218 TIP3_3218    0.417
15738 H2 43.276 20.841 -38.070 ho 3218 TIP3_3218    0.417
15739 OH2 35.082 9.674 -28.066 oh 3219 TIP3_3219   -0.834
15740 H1 35.208 10.123 -27.205 ho 3219 TIP3_3219    0.417
15741 H2 34.448 10.288 -28.455 ho 3219 TIP3_3219    0.417
15742 OH2 46.379 14.620 -33.468 oh 3220 TIP3_3220   -0.834
15743 H1 45.426 14.562 -33.395 ho 3220 TIP3_3220    0.417
15744 H2 46.498 14.479 -34.385 ho 3220 TIP3_3220    0.417
15745 OH2 31.991 15.669 -34.851 oh 3221 TIP3_3221   -0.834
15746 H1 31.907 15.886 -33.919 ho 3221 TIP3_3221    0.417
15747 H2 31.242 16.160 -35.276 ho 3221 TIP3_3221    0.417
15748 OH2 26.612 7.495 -35.466 oh 3222 TIP3_3222   -0.834
15749 H1 26.924 6.828 -34.819 ho 3222 TIP3_3222    0.417
15750 H2 25.678 7.557 -35.269 ho 3222 TIP3_3222    0.417
15751 OH2 42.738 19.015 -21.755 oh 3223 TIP3_3223   -0.834
15752 H1 42.877 18.946 -22.692 ho 3223 TIP3_3223    0.417
15753 H2 43.623 19.282 -21.385 ho 3223 TIP3_3223    0.417
15754 OH2 31.039 19.210 -33.510 oh 3224 TIP3_3224   -0.834
15755 H1 31.701 19.150 -34.262 ho 3224 TIP3_3224    0.417
15756 H2 31.016 18.280 -33.167 ho 3224 TIP3_3224    0.417
15757 OH2 45.476 10.705 -35.355 oh 3225 TIP3_3225   -0.834
15758 H1 44.680 10.570 -35.913 ho 3225 TIP3_3225    0.417
15759 H2 45.828 11.523 -35.698 ho 3225 TIP3_3225    0.417
15760 OH2 34.086 12.628 -29.139 oh 3226 TIP3_3226   -0.834
15761 H1 33.601 13.463 -29.333 ho 3226 TIP3_3226    0.417
15762 H2 34.195 12.683 -28.136 ho 3226 TIP3_3226    0.417
15763 OH2 34.343 16.756 -21.411 oh 3227 TIP3_3227   -0.834
15764 H1 34.953 17.132 -20.776 ho 3227 TIP3_3227    0.417
15765 H2 34.749 15.839 -21.476 ho 3227 TIP3_3227    0.417
15766 OH2 30.429 23.724 -24.607 oh 3228 TIP3_3228   -0.834
15767 H1 30.351 24.519 -25.135 ho 3228 TIP3_3228    0.417
15768 H2 30.636 24.090 -23.732 ho 3228 TIP3_3228    0.417
15769 OH2 33.946 23.237 -38.792 oh 3229 TIP3_3229   -0.834
15770 H1 34.315 22.752 -38.037 ho 3229 TIP3_3229    0.417
15771 H2 33.686 24.083 -38.370 ho 3229 TIP3_3229    0.417
15772 OH2 47.940 9.912 -37.316 oh 3230 TIP3_3230   -0.834
15773 H1 48.335 9.036 -37.466 ho 3230 TIP3_3230    0.417
15774 H2 47.084 9.834 -37.682 ho 3230 TIP3_3230    0.417
15775 OH2 35.219 0.985 -34.833 oh 3231 TIP3_3231   -0.834
15776 H1 35.691 0.282 -35.221 ho 3231 TIP3_3231    0.417
15777 H2 35.349 0.758 -33.869 ho 3231 TIP3_3231    0.417
15778 OH2 30.555 6.449 -37.376 oh 3232 TIP3_3232   -0.834
15779 H1 30.958 7.299 -37.283 ho 3232 TIP3_3232    0.417
15780 H2 31.036 5.896 -36.785 ho 3232 TIP3_3232    0.417
15781 OH2 48.513 7.168 -38.444 oh 3233 TIP3_3233   -0.834
15782 H1 47.857 6.774 -39.120 ho 3233 TIP3_3233    0.417
15783 H2 49.399 6.777 -38.696 ho 3233 TIP3_3233    0.417
15784 OH2 32.478 18.797 -35.816 oh 3234 TIP3_3234   -0.834
15785 H1 31.861 18.153 -36.010 ho 3234 TIP3_3234    0.417
15786 H2 32.513 19.419 -36.541 ho 3234 TIP3_3234    0.417
15787 OH2 28.292 14.264 -23.123 oh 3235 TIP3_3235   -0.834
15788 H1 28.723 13.402 -23.057 ho 3235 TIP3_3235    0.417
15789 H2 28.925 14.831 -22.724 ho 3235 TIP3_3235    0.417
15790 OH2 40.293 20.569 -38.219 oh 3236 TIP3_3236   -0.834
15791 H1 40.998 21.191 -38.500 ho 3236 TIP3_3236    0.417
15792 H2 39.718 21.190 -37.713 ho 3236 TIP3_3236    0.417
15793 OH2 42.216 18.960 -30.621 oh 3237 TIP3_3237   -0.834
15794 H1 43.146 18.550 -30.712 ho 3237 TIP3_3237    0.417
15795 H2 42.317 19.816 -31.035 ho 3237 TIP3_3237    0.417
15796 OH2 29.649 2.814 -31.678 oh 3238 TIP3_3238   -0.834
15797 H1 30.269 3.535 -31.993 ho 3238 TIP3_3238    0.417
15798 H2 28.772 3.055 -32.040 ho 3238 TIP3_3238    0.417
15799 OH2 36.165 7.860 -38.664 oh 3239 TIP3_3239   -0.834
15800 H1 36.383 7.035 -39.026 ho 3239 TIP3_3239    0.417
15801 H2 35.906 7.669 -37.759 ho 3239 TIP3_3239    0.417
15802 OH2 41.657 13.461 -33.027 oh 3240 TIP3_3240   -0.834
15803 H1 42.348 12.883 -32.653 ho 3240 TIP3_3240    0.417
15804 H2 42.133 14.239 -33.300 ho 3240 TIP3_3240    0.417
15805 OH2 32.402 3.660 -29.639 oh 3241 TIP3_3241   -0.834
15806 H1 31.609 4.153 -29.466 ho 3241 TIP3_3241    0.417
15807 H2 32.637 3.912 -30.514 ho 3241 TIP3_3241    0.417
15808 OH2 28.642 16.792 -32.018 oh 3242 TIP3_3242   -0.834
15809 H1 27.938 16.972 -31.415 ho 3242 TIP3_3242    0.417
15810 H2 28.801 15.840 -31.896 ho 3242 TIP3_3242    0.417
15811 OH2 31.249 2.735 -26.332 oh 3243 TIP3_3243   -0.834
15812 H1 31.463 3.358 -27.002 ho 3243 TIP3_3243    0.417
15813 H2 32.090 2.243 -26.152 ho 3243 TIP3_3243    0.417
15814 OH2 46.351 20.098 -31.299 oh 3244 TIP3_3244   -0.834
15815 H1 46.141 19.459 -32.001 ho 3244 TIP3_3244    0.417
15816 H2 46.259 19.537 -30.559 ho 3244 TIP3_3244    0.417
15817 OH2 48.346 20.486 -34.709 oh 3245 TIP3_3245   -0.834
15818 H1 47.655 20.383 -35.346 ho 3245 TIP3_3245    0.417
15819 H2 48.741 19.565 -34.586 ho 3245 TIP3_3245    0.417
15820 OH2 38.755 5.376 -21.340 oh 3246 TIP3_3246   -0.834
15821 H1 37.801 5.330 -21.190 ho 3246 TIP3_3246    0.417
15822 H2 38.884 5.626 -22.222 ho 3246 TIP3_3246    0.417
15823 OH2 48.418 2.184 -31.936 oh 3247 TIP3_3247   -0.834
15824 H1 48.266 1.649 -31.124 ho 3247 TIP3_3247    0.417
15825 H2 48.361 1.508 -32.646 ho 3247 TIP3_3247    0.417
15826 OH2 28.882 8.117 -38.731 oh 3248 TIP3_3248   -0.834
15827 H1 29.297 8.920 -38.369 ho 3248 TIP3_3248    0.417
15828 H2 29.630 7.476 -38.741 ho 3248 TIP3_3248    0.417
15829 OH2 45.244 20.722 -28.049 oh 3249 TIP3_3249   -0.834
15830 H1 46.105 20.472 -27.699 ho 3249 TIP3_3249    0.417
15831 H2 45.403 21.618 -28.290 ho 3249 TIP3_3249    0.417
15832 OH2 38.912 1.462 -37.714 oh 3250 TIP3_3250   -0.834
15833 H1 38.667 2.388 -37.461 ho 3250 TIP3_3250    0.417
15834 H2 38.488 0.916 -37.000 ho 3250 TIP3_3250    0.417
15835 OH2 34.637 6.703 -27.639 oh 3251 TIP3_3251   -0.834
15836 H1 34.551 7.630 -27.969 ho 3251 TIP3_3251    0.417
15837 H2 35.377 6.806 -26.973 ho 3251 TIP3_3251    0.417
15838 OH2 47.955 17.504 -28.469 oh 3252 TIP3_3252   -0.834
15839 H1 48.069 18.381 -28.928 ho 3252 TIP3_3252    0.417
15840 H2 48.392 16.937 -29.121 ho 3252 TIP3_3252    0.417
15841 OH2 38.880 7.413 -30.947 oh 3253 TIP3_3253   -0.834
15842 H1 38.113 7.809 -30.546 ho 3253 TIP3_3253    0.417
15843 H2 38.540 6.667 -31.547 ho 3253 TIP3_3253    0.417
15844 OH2 30.214 10.728 -38.104 oh 3254 TIP3_3254   -0.834
15845 H1 30.747 10.733 -38.902 ho 3254 TIP3_3254    0.417
15846 H2 29.589 11.462 -38.332 ho 3254 TIP3_3254    0.417
15847 OH2 31.151 11.124 -28.843 oh 3255 TIP3_3255   -0.834
15848 H1 31.252 11.551 -27.967 ho 3255 TIP3_3255    0.417
15849 H2 31.637 11.696 -29.489 ho 3255 TIP3_3255    0.417
15850 OH2 26.428 14.027 -37.845 oh 3256 TIP3_3256   -0.834
15851 H1 26.493 14.600 -36.989 ho 3256 TIP3_3256    0.417
15852 H2 26.538 13.186 -37.492 ho 3256 TIP3_3256    0.417
15853 OH2 36.514 7.235 -23.257 oh 3257 TIP3_3257   -0.834
15854 H1 35.907 6.695 -23.750 ho 3257 TIP3_3257    0.417
15855 H2 37.387 6.824 -23.274 ho 3257 TIP3_3257    0.417
15856 OH2 49.680 16.116 -24.993 oh 3258 TIP3_3258   -0.834
15857 H1 48.911 16.015 -24.400 ho 3258 TIP3_3258    0.417
15858 H2 49.428 15.635 -25.759 ho 3258 TIP3_3258    0.417
15859 OH2 28.259 4.755 -29.522 oh 3259 TIP3_3259   -0.834
15860 H1 28.377 5.314 -30.277 ho 3259 TIP3_3259    0.417
15861 H2 27.498 4.224 -29.857 ho 3259 TIP3_3259    0.417
15862 OH2 46.948 10.554 -22.109 oh 3260 TIP3_3260   -0.834
15863 H1 47.717 10.377 -21.590 ho 3260 TIP3_3260    0.417
15864 H2 46.530 11.190 -21.504 ho 3260 TIP3_3260    0.417
15865 OH2 46.097 7.860 -35.300 oh 3261 TIP3_3261   -0.834
15866 H1 45.853 8.778 -35.395 ho 3261 TIP3_3261    0.417
15867 H2 45.276 7.355 -35.391 ho 3261 TIP3_3261    0.417
15868 OH2 30.725 21.737 -31.060 oh 3262 TIP3_3262   -0.834
15869 H1 30.929 22.691 -30.865 ho 3262 TIP3_3262    0.417
15870 H2 29.801 21.608 -30.789 ho 3262 TIP3_3262    0.417
15871 OH2 38.305 11.968 -39.228 oh 3263 TIP3_3263   -0.834
15872 H1 37.349 12.077 -39.405 ho 3263 TIP3_3263    0.417
15873 H2 38.733 12.791 -39.457 ho 3263 TIP3_3263    0.417
15874 OH2 41.936 1.039 -36.049 oh 3264 TIP3_3264   -0.834
15875 H1 41.552 0.515 -35.384 ho 3264 TIP3_3264    0.417
15876 H2 42.731 0.524 -36.316 ho 3264 TIP3_3264    0.417
15877 OH2 38.036 23.514 -30.111 oh 3265 TIP3_3265   -0.834
15878 H1 38.912 23.827 -29.880 ho 3265 TIP3_3265    0.417
15879 H2 37.818 23.038 -29.263 ho 3265 TIP3_3265    0.417
15880 OH2 44.072 23.618 -25.372 oh 3266 TIP3_3266   -0.834
15881 H1 44.998 23.464 -25.646 ho 3266 TIP3_3266    0.417
15882 H2 43.724 22.832 -24.940 ho 3266 TIP3_3266    0.417
15883 OH2 38.019 24.101 -26.047 oh 3267 TIP3_3267   -0.834
15884 H1 38.535 24.559 -26.707 ho 3267 TIP3_3267    0.417
15885 H2 38.431 24.180 -25.167 ho 3267 TIP3_3267    0.417
15886 OH2 33.084 7.876 -24.176 oh 3268 TIP3_3268   -0.834
15887 H1 32.143 7.955 -24.219 ho 3268 TIP3_3268    0.417
15888 H2 33.277 7.234 -23.503 ho 3268 TIP3_3268    0.417
15889 OH2 46.477 13.729 -28.303 oh 3269 TIP3_3269   -0.834
15890 H1 46.458 13.840 -29.294 ho 3269 TIP3_3269    0.417
15891 H2 45.942 12.904 -28.111 ho 3269 TIP3_3269    0.417
15892 OH2 29.716 3.389 -39.042 oh 3270 TIP3_3270   -0.834
15893 H1 28.999 3.738 -38.510 ho 3270 TIP3_3270    0.417
15894 H2 29.567 2.411 -38.991 ho 3270 TIP3_3270    0.417
15895 OH2 44.161 10.629 -26.246 oh 3271 TIP3_3271   -0.834
15896 H1 43.512 10.731 -25.545 ho 3271 TIP3_3271    0.417
15897 H2 45.026 10.799 -25.787 ho 3271 TIP3_3271    0.417
15898 OH2 39.389 14.614 -32.176 oh 3272 TIP3_3272   -0.834
15899 H1 40.121 14.201 -32.659 ho 3272 TIP3_3272    0.417
15900 H2 39.054 15.229 -32.848 ho 3272 TIP3_3272    0.417
15901 OH2 34.813 0.619 -25.270 oh 3273 TIP3_3273   -0.834
15902 H1 35.656 0.876 -24.836 ho 3273 TIP3_3273    0.417
15903 H2 34.196 1.145 -24.725 ho 3273 TIP3_3273    0.417
15904 OH2 38.378 11.017 -29.909 oh 3274 TIP3_3274   -0.834
15905 H1 38.844 11.623 -29.399 ho 3274 TIP3_3274    0.417
15906 H2 37.958 11.567 -30.595 ho 3274 TIP3_3274    0.417
15907 OH2 48.196 13.709 -31.576 oh 3275 TIP3_3275   -0.834
15908 H1 48.539 12.839 -31.882 ho 3275 TIP3_3275    0.417
15909 H2 47.601 14.066 -32.325 ho 3275 TIP3_3275    0.417
15910 OH2 46.058 13.464 -21.607 oh 3276 TIP3_3276   -0.834
15911 H1 45.985 14.446 -21.444 ho 3276 TIP3_3276    0.417
15912 H2 45.680 13.330 -22.499 ho 3276 TIP3_3276    0.417
15913 OH2 39.335 9.997 -24.341 oh 3277 TIP3_3277   -0.834
15914 H1 38.364 9.868 -24.261 ho 3277 TIP3_3277    0.417
15915 H2 39.410 10.230 -25.279 ho 3277 TIP3_3277    0.417
15916 OH2 40.727 1.799 -28.529 oh 3278 TIP3_3278   -0.834
15917 H1 41.447 1.161 -28.206 ho 3278 TIP3_3278    0.417
15918 H2 40.668 2.359 -27.784 ho 3278 TIP3_3278    0.417
15919 OH2 48.294 17.462 -34.884 oh 3279 TIP3_3279   -0.834
15920 H1 47.988 17.356 -33.991 ho 3279 TIP3_3279    0.417
15921 H2 47.550 17.147 -35.437 ho 3279 TIP3_3279    0.417
15922 OH2 40.581 3.901 -31.059 oh 3280 TIP3_3280   -0.834
15923 H1 40.875 4.699 -31.454 ho 3280 TIP3_3280    0.417
15924 H2 41.377 3.333 -31.092 ho 3280 TIP3_3280    0.417
15925 OH2 35.205 5.663 -31.399 oh 3281 TIP3_3281   -0.834
15926 H1 35.229 5.950 -30.452 ho 3281 TIP3_3281    0.417
15927 H2 35.944 5.051 -31.491 ho 3281 TIP3_3281    0.417
15928 OH2 28.800 6.154 -22.205 oh 3282 TIP3_3282   -0.834
15929 H1 28.576 6.376 -23.168 ho 3282 TIP3_3282    0.417
15930 H2 28.826 5.184 -22.177 ho 3282 TIP3_3282    0.417
15931 OH2 44.162 1.826 -26.278 oh 3283 TIP3_3283   -0.834
15932 H1 45.048 1.911 -26.581 ho 3283 TIP3_3283    0.417
15933 H2 44.172 1.129 -25.645 ho 3283 TIP3_3283    0.417
15934 OH2 29.098 2.516 -35.559 oh 3284 TIP3_3284   -0.834
15935 H1 28.869 1.827 -34.935 ho 3284 TIP3_3284    0.417
15936 H2 30.084 2.574 -35.407 ho 3284 TIP3_3284    0.417
15937 OH2 49.145 18.996 -30.821 oh 3285 TIP3_3285   -0.834
15938 H1 48.539 19.676 -31.114 ho 3285 TIP3_3285    0.417
15939 H2 50.054 19.359 -31.021 ho 3285 TIP3_3285    0.417
15940 OH2 36.134 7.630 -36.006 oh 3286 TIP3_3286   -0.834
15941 H1 35.458 7.295 -35.277 ho 3286 TIP3_3286    0.417
15942 H2 36.167 8.577 -35.879 ho 3286 TIP3_3286    0.417
15943 OH2 27.303 22.534 -38.226 oh 3287 TIP3_3287   -0.834
15944 H1 28.243 22.526 -38.184 ho 3287 TIP3_3287    0.417
15945 H2 27.096 22.909 -39.093 ho 3287 TIP3_3287    0.417
15946 OH2 42.744 23.146 -28.545 oh 3288 TIP3_3288   -0.834
15947 H1 42.089 23.850 -28.517 ho 3288 TIP3_3288    0.417
15948 H2 43.240 23.175 -27.687 ho 3288 TIP3_3288    0.417
15949 OH2 34.339 13.413 -21.977 oh 3289 TIP3_3289   -0.834
15950 H1 34.291 12.725 -21.291 ho 3289 TIP3_3289    0.417
15951 H2 35.105 13.114 -22.489 ho 3289 TIP3_3289    0.417
15952 OH2 38.704 9.221 -38.664 oh 3290 TIP3_3290   -0.834
15953 H1 37.799 8.899 -38.594 ho 3290 TIP3_3290    0.417
15954 H2 38.565 10.045 -39.002 ho 3290 TIP3_3290    0.417
15955 OH2 42.814 11.110 -29.299 oh 3291 TIP3_3291   -0.834
15956 H1 43.288 10.457 -28.770 ho 3291 TIP3_3291    0.417
15957 H2 42.343 11.669 -28.647 ho 3291 TIP3_3291    0.417
15958 OH2 38.476 19.820 -34.071 oh 3292 TIP3_3292   -0.834
15959 H1 38.852 19.131 -33.532 ho 3292 TIP3_3292    0.417
15960 H2 38.927 19.783 -34.918 ho 3292 TIP3_3292    0.417
15961 OH2 35.521 23.587 -24.613 oh 3293 TIP3_3293   -0.834
15962 H1 35.109 24.432 -24.325 ho 3293 TIP3_3293    0.417
15963 H2 35.957 23.895 -25.440 ho 3293 TIP3_3293    0.417
15964 OH2 30.455 24.518 -30.725 oh 3294 TIP3_3294   -0.834
15965 H1 30.131 24.273 -29.830 ho 3294 TIP3_3294    0.417
15966 H2 29.728 24.934 -31.127 ho 3294 TIP3_3294    0.417
15967 OH2 29.879 9.045 -30.003 oh 3295 TIP3_3295   -0.834
15968 H1 30.183 9.410 -30.863 ho 3295 TIP3_3295    0.417
15969 H2 30.355 9.696 -29.366 ho 3295 TIP3_3295    0.417
15970 OH2 27.916 6.913 -31.022 oh 3296 TIP3_3296   -0.834
15971 H1 28.773 7.387 -30.984 ho 3296 TIP3_3296    0.417
15972 H2 27.225 7.579 -30.972 ho 3296 TIP3_3296    0.417
15973 OH2 28.661 0.314 -34.330 oh 3297 TIP3_3297   -0.834
15974 H1 29.172 -0.129 -35.004 ho 3297 TIP3_3297    0.417
15975 H2 29.048 0.053 -33.531 ho 3297 TIP3_3297    0.417
15976 OH2 28.440 17.702 -34.510 oh 3298 TIP3_3298   -0.834
15977 H1 28.699 17.534 -33.613 ho 3298 TIP3_3298    0.417
15978 H2 28.499 18.699 -34.558 ho 3298 TIP3_3298    0.417
15979 OH2 43.150 17.279 -35.957 oh 3299 TIP3_3299   -0.834
15980 H1 42.833 16.570 -36.500 ho 3299 TIP3_3299    0.417
15981 H2 42.304 17.792 -35.803 ho 3299 TIP3_3299    0.417
15982 OH2 37.879 20.190 -30.508 oh 3300 TIP3_3300   -0.834
15983 H1 37.047 19.685 -30.507 ho 3300 TIP3_3300    0.417
15984 H2 37.694 20.897 -31.084 ho 3300 TIP3_3300    0.417
15985 OH2 37.162 12.850 -36.009 oh 3301 TIP3_3301   -0.834
15986 H1 37.834 13.534 -35.664 ho 3301 TIP3_3301    0.417
15987 H2 36.316 13.141 -35.559 ho 3301 TIP3_3301    0.417
15988 OH2 34.742 10.426 -31.763 oh 3302 TIP3_3302   -0.834
15989 H1 35.233 10.615 -30.952 ho 3302 TIP3_3302    0.417
15990 H2 35.423 10.170 -32.483 ho 3302 TIP3_3302    0.417
15991 OH2 30.499 15.623 -22.704 oh 3303 TIP3_3303   -0.834
15992 H1 30.663 16.617 -23.000 ho 3303 TIP3_3303    0.417
15993 H2 31.338 15.458 -22.304 ho 3303 TIP3_3303    0.417
15994 OH2 39.690 23.915 -38.762 oh 3304 TIP3_3304   -0.834
15995 H1 39.152 24.656 -38.333 ho 3304 TIP3_3304    0.417
15996 H2 40.569 24.297 -38.835 ho 3304 TIP3_3304    0.417
15997 OH2 26.844 16.246 -39.600 oh 3305 TIP3_3305   -0.834
15998 H1 25.974 16.527 -39.547 ho 3305 TIP3_3305    0.417
15999 H2 26.788 15.390 -39.164 ho 3305 TIP3_3305    0.417
16000 OH2 44.876 18.378 -29.271 oh 3306 TIP3_3306   -0.834
16001 H1 44.719 19.277 -28.940 ho 3306 TIP3_3306    0.417
16002 H2 44.512 17.826 -28.589 ho 3306 TIP3_3306    0.417
16003 OH2 40.438 16.927 -30.486 oh 3307 TIP3_3307   -0.834
16004 H1 40.398 16.389 -31.235 ho 3307 TIP3_3307    0.417
16005 H2 41.130 17.616 -30.724 ho 3307 TIP3_3307    0.417
16006 OH2 45.039 9.865 -31.770 oh 3308 TIP3_3308   -0.834
16007 H1 45.969 9.652 -31.619 ho 3308 TIP3_3308    0.417
16008 H2 44.590 9.352 -31.049 ho 3308 TIP3_3308    0.417
16009 OH2 46.571 23.332 -37.026 oh 3309 TIP3_3309   -0.834
16010 H1 46.259 23.376 -36.094 ho 3309 TIP3_3309    0.417
16011 H2 47.394 23.847 -37.023 ho 3309 TIP3_3309    0.417
16012 OH2 49.725 23.075 -30.202 oh 3310 TIP3_3310   -0.834
16013 H1 48.918 23.265 -30.685 ho 3310 TIP3_3310    0.417
16014 H2 49.557 22.262 -29.764 ho 3310 TIP3_3310    0.417
16015 OH2 28.882 23.633 -33.956 oh 3311 TIP3_3311   -0.834
16016 H1 29.731 23.116 -34.018 ho 3311 TIP3_3311    0.417
16017 H2 29.079 24.242 -33.262 ho 3311 TIP3_3311    0.417
16018 OH2 28.005 8.969 -25.251 oh 3312 TIP3_3312   -0.834
16019 H1 28.749 9.208 -25.841 ho 3312 TIP3_3312    0.417
16020 H2 28.103 8.042 -25.075 ho 3312 TIP3_3312    0.417
16021 OH2 43.552 16.696 -24.307 oh 3313 TIP3_3313   -0.834
16022 H1 42.994 17.446 -24.461 ho 3313 TIP3_3313    0.417
16023 H2 43.187 16.046 -24.919 ho 3313 TIP3_3313    0.417
16024 OH2 40.429 12.194 -36.923 oh 3314 TIP3_3314   -0.834
16025 H1 39.827 11.701 -37.396 ho 3314 TIP3_3314    0.417
16026 H2 40.256 12.007 -35.937 ho 3314 TIP3_3314    0.417
16027 OH2 45.584 4.083 -30.742 oh 3315 TIP3_3315   -0.834
16028 H1 45.206 4.670 -29.996 ho 3315 TIP3_3315    0.417
16029 H2 46.495 4.378 -30.905 ho 3315 TIP3_3315    0.417
16030 OH2 46.057 8.054 -21.300 oh 3316 TIP3_3316   -0.834
16031 H1 46.397 8.374 -20.462 ho 3316 TIP3_3316    0.417
16032 H2 46.324 8.836 -21.915 ho 3316 TIP3_3316    0.417
16033 OH2 29.109 0.989 -29.851 oh 3317 TIP3_3317   -0.834
16034 H1 30.003 0.645 -29.650 ho 3317 TIP3_3317    0.417
16035 H2 29.317 1.768 -30.417 ho 3317 TIP3_3317    0.417
16036 OH2 33.376 7.914 -31.264 oh 3318 TIP3_3318   -0.834
16037 H1 34.100 7.283 -31.266 ho 3318 TIP3_3318    0.417
16038 H2 33.807 8.795 -31.432 ho 3318 TIP3_3318    0.417
16039 OH2 36.456 20.866 -23.705 oh 3319 TIP3_3319   -0.834
16040 H1 36.302 21.844 -23.733 ho 3319 TIP3_3319    0.417
16041 H2 37.263 20.790 -23.177 ho 3319 TIP3_3319    0.417
16042 OH2 26.007 24.042 -24.892 oh 3320 TIP3_3320   -0.834
16043 H1 25.415 24.733 -25.280 ho 3320 TIP3_3320    0.417
16044 H2 26.459 23.751 -25.693 ho 3320 TIP3_3320    0.417
16045 OH2 36.253 17.473 -36.420 oh 3321 TIP3_3321   -0.834
16046 H1 35.505 16.897 -36.694 ho 3321 TIP3_3321    0.417
16047 H2 36.190 18.254 -36.951 ho 3321 TIP3_3321    0.417
16048 OH2 36.613 9.832 -24.054 oh 3322 TIP3_3322   -0.834
16049 H1 36.669 8.875 -23.795 ho 3322 TIP3_3322    0.417
16050 H2 35.848 10.107 -23.614 ho 3322 TIP3_3322    0.417
16051 OH2 42.732 9.385 -22.122 oh 3323 TIP3_3323   -0.834
16052 H1 42.848 10.369 -21.849 ho 3323 TIP3_3323    0.417
16053 H2 42.564 8.930 -21.255 ho 3323 TIP3_3323    0.417
16054 OH2 48.112 1.630 -24.085 oh 3324 TIP3_3324   -0.834
16055 H1 47.633 1.888 -24.904 ho 3324 TIP3_3324    0.417
16056 H2 48.826 1.040 -24.348 ho 3324 TIP3_3324    0.417
16057 OH2 27.520 5.670 -33.743 oh 3325 TIP3_3325   -0.834
16058 H1 27.672 4.751 -33.563 ho 3325 TIP3_3325    0.417
16059 H2 27.416 6.150 -32.855 ho 3325 TIP3_3325    0.417
16060 OH2 44.236 7.819 -30.109 oh 3326 TIP3_3326   -0.834
16061 H1 44.107 7.085 -30.646 ho 3326 TIP3_3326    0.417
16062 H2 44.087 7.479 -29.243 ho 3326 TIP3_3326    0.417
16063 OH2 31.184 9.140 -35.946 oh 3327 TIP3_3327   -0.834
16064 H1 30.743 9.819 -36.528 ho 3327 TIP3_3327    0.417
16065 H2 30.506 8.825 -35.380 ho 3327 TIP3_3327    0.417
16066 OH2 47.501 13.806 -39.404 oh 3328 TIP3_3328   -0.834
16067 H1 46.645 13.424 -39.104 ho 3328 TIP3_3328    0.417
16068 H2 47.458 14.666 -38.894 ho 3328 TIP3_3328    0.417
16069 OH2 37.532 10.205 -36.074 oh 3329 TIP3_3329   -0.834
16070 H1 38.319 10.020 -36.587 ho 3329 TIP3_3329    0.417
16071 H2 37.564 11.141 -35.888 ho 3329 TIP3_3329    0.417
16072 OH2 49.095 23.128 -33.058 oh 3330 TIP3_3330   -0.834
16073 H1 48.451 23.814 -33.053 ho 3330 TIP3_3330    0.417
16074 H2 48.621 22.452 -33.503 ho 3330 TIP3_3330    0.417
16075 OH2 33.569 0.684 -27.789 oh 3331 TIP3_3331   -0.834
16076 H1 34.123 0.542 -26.985 ho 3331 TIP3_3331    0.417
16077 H2 33.805 1.595 -28.073 ho 3331 TIP3_3331    0.417
16078 OH2 34.858 13.394 -34.444 oh 3332 TIP3_3332   -0.834
16079 H1 34.086 13.132 -34.008 ho 3332 TIP3_3332    0.417
16080 H2 35.285 14.003 -33.917 ho 3332 TIP3_3332    0.417
16081 OH2 42.893 12.193 -21.716 oh 3333 TIP3_3333   -0.834
16082 H1 42.698 12.733 -22.532 ho 3333 TIP3_3333    0.417
16083 H2 43.169 12.859 -21.108 ho 3333 TIP3_3333    0.417
16084 OH2 44.145 7.320 -37.951 oh 3334 TIP3_3334   -0.834
16085 H1 43.988 6.387 -38.018 ho 3334 TIP3_3334    0.417
16086 H2 43.252 7.669 -37.667 ho 3334 TIP3_3334    0.417
16087 OH2 34.064 5.446 -22.304 oh 3335 TIP3_3335   -0.834
16088 H1 34.896 5.192 -21.919 ho 3335 TIP3_3335    0.417
16089 H2 33.498 5.631 -21.509 ho 3335 TIP3_3335    0.417
16090 OH2 27.156 16.821 -24.188 oh 3336 TIP3_3336   -0.834
16091 H1 26.670 16.817 -23.331 ho 3336 TIP3_3336    0.417
16092 H2 27.913 16.195 -24.072 ho 3336 TIP3_3336    0.417
16093 OH2 29.598 3.408 -21.681 oh 3337 TIP3_3337   -0.834
16094 H1 29.669 3.317 -22.645 ho 3337 TIP3_3337    0.417
16095 H2 30.390 2.828 -21.358 ho 3337 TIP3_3337    0.417
16096 OH2 42.732 20.776 -26.757 oh 3338 TIP3_3338   -0.834
16097 H1 43.560 20.755 -27.255 ho 3338 TIP3_3338    0.417
16098 H2 42.025 20.914 -27.362 ho 3338 TIP3_3338    0.417
16099 OH2 38.524 6.510 -35.250 oh 3339 TIP3_3339   -0.834
16100 H1 39.302 7.013 -35.570 ho 3339 TIP3_3339    0.417
16101 H2 37.790 6.810 -35.738 ho 3339 TIP3_3339    0.417
16102 OH2 48.392 11.149 -34.679 oh 3340 TIP3_3340   -0.834
16103 H1 47.454 11.253 -34.966 ho 3340 TIP3_3340    0.417
16104 H2 48.773 11.596 -35.443 ho 3340 TIP3_3340    0.417
16105 OH2 38.841 14.123 -29.510 oh 3341 TIP3_3341   -0.834
16106 H1 39.262 14.328 -30.337 ho 3341 TIP3_3341    0.417
16107 H2 38.357 14.915 -29.274 ho 3341 TIP3_3341    0.417
16108 OH2 33.173 16.779 -24.182 oh 3342 TIP3_3342   -0.834
16109 H1 33.660 16.968 -23.356 ho 3342 TIP3_3342    0.417
16110 H2 32.591 17.456 -24.182 ho 3342 TIP3_3342    0.417
16111 OH2 25.802 0.084 -34.477 oh 3343 TIP3_3343   -0.834
16112 H1 25.579 1.065 -34.495 ho 3343 TIP3_3343    0.417
16113 H2 26.795 0.163 -34.555 ho 3343 TIP3_3343    0.417
16114 OH2 30.303 17.257 -36.427 oh 3344 TIP3_3344   -0.834
16115 H1 29.433 17.319 -36.054 ho 3344 TIP3_3344    0.417
16116 H2 30.132 16.861 -37.289 ho 3344 TIP3_3344    0.417
16117 OH2 43.540 15.069 -34.169 oh 3345 TIP3_3345   -0.834
16118 H1 43.411 14.516 -34.923 ho 3345 TIP3_3345    0.417
16119 H2 43.269 16.010 -34.477 ho 3345 TIP3_3345    0.417
16120 OH2 46.334 23.333 -39.946 oh 3346 TIP3_3346   -0.834
16121 H1 47.099 22.648 -39.900 ho 3346 TIP3_3346    0.417
16122 H2 46.154 23.474 -38.950 ho 3346 TIP3_3346    0.417
16123 OH2 29.529 16.068 -38.632 oh 3347 TIP3_3347   -0.834
16124 H1 29.799 15.167 -38.907 ho 3347 TIP3_3347    0.417
16125 H2 28.519 15.998 -38.808 ho 3347 TIP3_3347    0.417
16126 OH2 39.794 15.182 -38.476 oh 3348 TIP3_3348   -0.834
16127 H1 39.877 15.914 -39.079 ho 3348 TIP3_3348    0.417
16128 H2 40.643 14.718 -38.585 ho 3348 TIP3_3348    0.417
16129 OH2 25.995 3.021 -29.985 oh 3349 TIP3_3349   -0.834
16130 H1 25.013 2.981 -29.957 ho 3349 TIP3_3349    0.417
16131 H2 26.298 2.119 -29.737 ho 3349 TIP3_3349    0.417
16132 OH2 29.289 0.675 -38.525 oh 3350 TIP3_3350   -0.834
16133 H1 30.014 0.297 -38.091 ho 3350 TIP3_3350    0.417
16134 H2 28.628 0.027 -38.487 ho 3350 TIP3_3350    0.417
16135 OH2 40.369 11.264 -34.389 oh 3351 TIP3_3351   -0.834
16136 H1 40.586 11.956 -33.783 ho 3351 TIP3_3351    0.417
16137 H2 40.370 10.505 -33.834 ho 3351 TIP3_3351    0.417
16138 OH2 44.263 22.653 -30.855 oh 3352 TIP3_3352   -0.834
16139 H1 43.756 22.336 -30.105 ho 3352 TIP3_3352    0.417
16140 H2 44.370 23.622 -30.673 ho 3352 TIP3_3352    0.417
16141 OH2 27.086 0.452 -21.806 oh 3353 TIP3_3353   -0.834
16142 H1 27.174 0.923 -22.606 ho 3353 TIP3_3353    0.417
16143 H2 26.272 0.869 -21.396 ho 3353 TIP3_3353    0.417
16144 OH2 44.993 5.539 -28.466 oh 3354 TIP3_3354   -0.834
16145 H1 45.630 6.251 -28.418 ho 3354 TIP3_3354    0.417
16146 H2 45.051 5.203 -27.536 ho 3354 TIP3_3354    0.417
16147 OH2 29.062 8.760 -34.358 oh 3355 TIP3_3355   -0.834
16148 H1 28.684 9.308 -33.637 ho 3355 TIP3_3355    0.417
16149 H2 28.294 8.253 -34.618 ho 3355 TIP3_3355    0.417
16150 OH2 37.530 12.675 -32.217 oh 3356 TIP3_3356   -0.834
16151 H1 38.242 13.363 -32.110 ho 3356 TIP3_3356    0.417
16152 H2 36.676 13.280 -32.242 ho 3356 TIP3_3356    0.417
16153 OH2 36.893 8.506 -29.559 oh 3357 TIP3_3357   -0.834
16154 H1 36.099 8.627 -29.090 ho 3357 TIP3_3357    0.417
16155 H2 37.352 9.369 -29.549 ho 3357 TIP3_3357    0.417
16156 OH2 26.277 20.001 -27.206 oh 3358 TIP3_3358   -0.834
16157 H1 27.048 19.797 -27.707 ho 3358 TIP3_3358    0.417
16158 H2 26.729 20.375 -26.330 ho 3358 TIP3_3358    0.417
16159 OH2 47.023 2.254 -26.788 oh 3359 TIP3_3359   -0.834
16160 H1 47.008 2.284 -27.723 ho 3359 TIP3_3359    0.417
16161 H2 47.707 2.959 -26.570 ho 3359 TIP3_3359    0.417
16162 OH2 26.765 14.532 -32.241 oh 3360 TIP3_3360   -0.834
16163 H1 25.761 14.599 -32.280 ho 3360 TIP3_3360    0.417
16164 H2 26.936 13.964 -31.458 ho 3360 TIP3_3360    0.417
16165 OH2 31.573 18.668 -28.709 oh 3361 TIP3_3361   -0.834
16166 H1 32.305 19.036 -28.121 ho 3361 TIP3_3361    0.417
16167 H2 31.727 19.180 -29.535 ho 3361 TIP3_3361    0.417
16168 OH2 39.317 15.999 -23.842 oh 3362 TIP3_3362   -0.834
16169 H1 38.947 16.195 -24.714 ho 3362 TIP3_3362    0.417
16170 H2 39.333 15.011 -23.855 ho 3362 TIP3_3362    0.417
16171 OH2 33.073 3.386 -24.115 oh 3363 TIP3_3363   -0.834
16172 H1 32.871 3.913 -24.903 ho 3363 TIP3_3363    0.417
16173 H2 33.208 4.108 -23.427 ho 3363 TIP3_3363    0.417
16174 OH2 37.141 7.047 -26.794 oh 3364 TIP3_3364   -0.834
16175 H1 37.199 7.594 -27.663 ho 3364 TIP3_3364    0.417
16176 H2 38.117 7.148 -26.520 ho 3364 TIP3_3364    0.417
16177 OH2 46.517 15.999 -26.685 oh 3365 TIP3_3365   -0.834
16178 H1 46.682 16.626 -27.366 ho 3365 TIP3_3365    0.417
16179 H2 46.503 15.207 -27.168 ho 3365 TIP3_3365    0.417
16180 OH2 26.331 11.142 -37.299 oh 3366 TIP3_3366   -0.834
16181 H1 25.365 11.131 -37.037 ho 3366 TIP3_3366    0.417
16182 H2 26.672 10.284 -36.967 ho 3366 TIP3_3366    0.417
16183 OH2 48.917 24.068 -26.068 oh 3367 TIP3_3367   -0.834
16184 H1 49.426 24.250 -26.913 ho 3367 TIP3_3367    0.417
16185 H2 49.506 24.317 -25.311 ho 3367 TIP3_3367    0.417
16186 OH2 45.002 5.235 -25.227 oh 3368 TIP3_3368   -0.834
16187 H1 44.680 5.758 -24.422 ho 3368 TIP3_3368    0.417
16188 H2 45.498 4.580 -24.815 ho 3368 TIP3_3368    0.417
16189 OH2 41.681 8.631 -38.200 oh 3369 TIP3_3369   -0.834
16190 H1 41.626 8.886 -39.115 ho 3369 TIP3_3369    0.417
16191 H2 40.882 8.213 -37.996 ho 3369 TIP3_3369    0.417
16192 OH2 45.479 20.359 -21.042 oh 3370 TIP3_3370   -0.834
16193 H1 45.939 19.830 -21.726 ho 3370 TIP3_3370    0.417
16194 H2 46.187 20.429 -20.318 ho 3370 TIP3_3370    0.417
16195 OH2 37.560 11.914 -21.482 oh 3371 TIP3_3371   -0.834
16196 H1 37.311 11.841 -20.540 ho 3371 TIP3_3371    0.417
16197 H2 38.172 11.216 -21.656 ho 3371 TIP3_3371    0.417
16198 OH2 38.102 4.392 -33.686 oh 3372 TIP3_3372   -0.834
16199 H1 38.204 5.236 -34.050 ho 3372 TIP3_3372    0.417
16200 H2 38.273 4.565 -32.739 ho 3372 TIP3_3372    0.417
16201 OH2 25.565 4.252 -38.417 oh 3373 TIP3_3373   -0.834
16202 H1 26.463 4.562 -38.264 ho 3373 TIP3_3373    0.417
16203 H2 25.586 3.335 -38.212 ho 3373 TIP3_3373    0.417
16204 OH2 32.756 5.127 -26.148 oh 3374 TIP3_3374   -0.834
16205 H1 33.321 5.781 -26.711 ho 3374 TIP3_3374    0.417
16206 H2 31.864 5.405 -26.437 ho 3374 TIP3_3374    0.417
16207 OH2 29.107 3.282 -24.761 oh 3375 TIP3_3375   -0.834
16208 H1 29.977 3.023 -25.218 ho 3375 TIP3_3375    0.417
16209 H2 28.554 2.530 -24.982 ho 3375 TIP3_3375    0.417
16210 OH2 30.557 16.084 -29.034 oh 3376 TIP3_3376   -0.834
16211 H1 29.641 15.939 -28.634 ho 3376 TIP3_3376    0.417
16212 H2 30.852 16.949 -28.622 ho 3376 TIP3_3376    0.417
16213 OH2 46.676 11.469 -24.678 oh 3377 TIP3_3377   -0.834
16214 H1 46.602 11.118 -23.791 ho 3377 TIP3_3377    0.417
16215 H2 46.363 12.388 -24.652 ho 3377 TIP3_3377    0.417
16216 OH2 30.233 8.186 -27.181 oh 3378 TIP3_3378   -0.834
16217 H1 31.106 8.436 -27.294 ho 3378 TIP3_3378    0.417
16218 H2 29.783 8.261 -28.046 ho 3378 TIP3_3378    0.417
16219 OH2 31.636 13.508 -30.693 oh 3379 TIP3_3379   -0.834
16220 H1 30.966 13.183 -31.177 ho 3379 TIP3_3379    0.417
16221 H2 31.338 14.353 -30.245 ho 3379 TIP3_3379    0.417
16222 OH2 46.033 2.960 -22.407 oh 3380 TIP3_3380   -0.834
16223 H1 46.033 3.956 -22.379 ho 3380 TIP3_3380    0.417
16224 H2 46.925 2.777 -22.825 ho 3380 TIP3_3380    0.417
16225 OH2 26.413 20.059 -39.196 oh 3381 TIP3_3381   -0.834
16226 H1 26.984 20.771 -38.774 ho 3381 TIP3_3381    0.417
16227 H2 27.018 19.555 -39.657 ho 3381 TIP3_3381    0.417
16228 OH2 41.863 6.310 -32.657 oh 3382 TIP3_3382   -0.834
16229 H1 42.079 7.272 -32.729 ho 3382 TIP3_3382    0.417
16230 H2 42.711 5.861 -32.781 ho 3382 TIP3_3382    0.417
16231 OH2 29.646 11.705 -34.461 oh 3383 TIP3_3383   -0.834
16232 H1 28.806 12.258 -34.588 ho 3383 TIP3_3383    0.417
16233 H2 30.096 11.891 -35.260 ho 3383 TIP3_3383    0.417
16234 OH2 41.689 1.229 -31.711 oh 3384 TIP3_3384   -0.834
16235 H1 42.192 0.791 -31.000 ho 3384 TIP3_3384    0.417
16236 H2 41.002 1.674 -31.148 ho 3384 TIP3_3384    0.417
16237 OH2 34.038 19.421 -23.754 oh 3385 TIP3_3385   -0.834
16238 H1 34.850 19.890 -23.743 ho 3385 TIP3_3385    0.417
16239 H2 34.418 18.614 -24.104 ho 3385 TIP3_3385    0.417
16240 OH2 27.213 12.935 -34.357 oh 3386 TIP3_3386   -0.834
16241 H1 27.155 13.521 -33.599 ho 3386 TIP3_3386    0.417
16242 H2 27.073 13.558 -35.075 ho 3386 TIP3_3386    0.417
16243 OH2 28.844 6.380 -25.086 oh 3387 TIP3_3387   -0.834
16244 H1 29.513 6.715 -25.699 ho 3387 TIP3_3387    0.417
16245 H2 28.982 5.438 -25.108 ho 3387 TIP3_3387    0.417
16246 OH2 49.291 19.899 -37.277 oh 3388 TIP3_3388   -0.834
16247 H1 49.073 20.356 -36.440 ho 3388 TIP3_3388    0.417
16248 H2 49.939 20.464 -37.684 ho 3388 TIP3_3388    0.417
16249 OH2 38.340 16.278 -26.289 oh 3389 TIP3_3389   -0.834
16250 H1 37.726 16.276 -27.022 ho 3389 TIP3_3389    0.417
16251 H2 39.202 16.460 -26.747 ho 3389 TIP3_3389    0.417
16252 OH2 27.547 10.847 -28.873 oh 3390 TIP3_3390   -0.834
16253 H1 28.122 10.236 -29.378 ho 3390 TIP3_3390    0.417
16254 H2 26.734 10.322 -28.781 ho 3390 TIP3_3390    0.417
16255 OH2 44.108 6.667 -22.919 oh 3391 TIP3_3391   -0.834
16256 H1 43.604 6.241 -22.230 ho 3391 TIP3_3391    0.417
16257 H2 44.620 7.420 -22.436 ho 3391 TIP3_3391    0.417
16258 OH2 45.293 9.856 -38.461 oh 3392 TIP3_3392   -0.834
16259 H1 45.002 9.771 -39.393 ho 3392 TIP3_3392    0.417
16260 H2 44.929 9.068 -38.034 ho 3392 TIP3_3392    0.417
16261 OH2 34.160 10.087 -22.911 oh 3393 TIP3_3393   -0.834
16262 H1 33.893 9.303 -23.482 ho 3393 TIP3_3393    0.417
16263 H2 33.511 10.788 -23.081 ho 3393 TIP3_3393    0.417
16264 OH2 48.647 22.490 -22.623 oh 3394 TIP3_3394   -0.834
16265 H1 49.600 22.363 -22.631 ho 3394 TIP3_3394    0.417
16266 H2 48.425 22.690 -21.664 ho 3394 TIP3_3394    0.417
16267 OH2 34.906 19.868 -20.737 oh 3395 TIP3_3395   -0.834
16268 H1 34.689 19.526 -21.616 ho 3395 TIP3_3395    0.417
16269 H2 35.879 19.744 -20.709 ho 3395 TIP3_3395    0.417
16270 OH2 37.988 16.850 -21.644 oh 3396 TIP3_3396   -0.834
16271 H1 38.291 16.637 -22.525 ho 3396 TIP3_3396    0.417
16272 H2 37.749 15.985 -21.305 ho 3396 TIP3_3396    0.417
16273 OH2 40.557 7.531 -22.210 oh 3397 TIP3_3397   -0.834
16274 H1 41.458 7.883 -22.545 ho 3397 TIP3_3397    0.417
16275 H2 40.240 6.941 -22.968 ho 3397 TIP3_3397    0.417
16276 OH2 34.694 23.174 -32.668 oh 3398 TIP3_3398   -0.834
16277 H1 35.564 22.876 -32.985 ho 3398 TIP3_3398    0.417
16278 H2 34.472 22.515 -31.890 ho 3398 TIP3_3398    0.417
16279 OH2 33.812 22.050 -36.047 oh 3399 TIP3_3399   -0.834
16280 H1 33.210 22.658 -35.542 ho 3399 TIP3_3399    0.417
16281 H2 34.655 22.094 -35.585 ho 3399 TIP3_3399    0.417
16282 OH2 26.079 17.038 -30.312 oh 3400 TIP3_3400   -0.834
16283 H1 25.379 17.718 -30.578 ho 3400 TIP3_3400    0.417
16284 H2 25.478 16.301 -30.062 ho 3400 TIP3_3400    0.417
16285 OH2 40.347 5.170 -27.971 oh 3401 TIP3_3401   -0.834
16286 H1 40.735 4.648 -28.701 ho 3401 TIP3_3401    0.417
16287 H2 41.082 5.398 -27.418 ho 3401 TIP3_3401    0.417
16288 OH2 42.051 10.779 -24.414 oh 3402 TIP3_3402   -0.834
16289 H1 41.172 10.409 -24.301 ho 3402 TIP3_3402    0.417
16290 H2 42.598 10.311 -23.746 ho 3402 TIP3_3402    0.417
16291 OH2 34.992 10.829 -36.703 oh 3403 TIP3_3403   -0.834
16292 H1 34.987 11.093 -37.662 ho 3403 TIP3_3403    0.417
16293 H2 35.930 10.998 -36.520 ho 3403 TIP3_3403    0.417
16294 OH2 44.917 1.551 -30.960 oh 3404 TIP3_3404   -0.834
16295 H1 45.120 1.190 -31.860 ho 3404 TIP3_3404    0.417
16296 H2 44.806 2.508 -31.129 ho 3404 TIP3_3404    0.417
16297 OH2 47.691 4.073 -33.850 oh 3405 TIP3_3405   -0.834
16298 H1 48.249 3.638 -34.462 ho 3405 TIP3_3405    0.417
16299 H2 47.694 3.441 -33.081 ho 3405 TIP3_3405    0.417
16300 OH2 26.907 13.378 -29.838 oh 3406 TIP3_3406   -0.834
16301 H1 27.307 12.490 -29.732 ho 3406 TIP3_3406    0.417
16302 H2 26.748 13.649 -28.926 ho 3406 TIP3_3406    0.417
16303 OH2 33.888 17.202 -31.638 oh 3407 TIP3_3407   -0.834
16304 H1 33.895 17.665 -32.546 ho 3407 TIP3_3407    0.417
16305 H2 34.556 17.751 -31.201 ho 3407 TIP3_3407    0.417
16306 OH2 39.880 20.010 -24.651 oh 3408 TIP3_3408   -0.834
16307 H1 40.738 19.905 -24.928 ho 3408 TIP3_3408    0.417
16308 H2 39.891 19.457 -23.863 ho 3408 TIP3_3408    0.417
16309 OH2 33.457 6.011 -39.140 oh 3409 TIP3_3409   -0.834
16310 H1 33.244 6.664 -38.486 ho 3409 TIP3_3409    0.417
16311 H2 32.809 5.305 -38.933 ho 3409 TIP3_3409    0.417
16312 OH2 27.860 15.978 -28.045 oh 3410 TIP3_3410   -0.834
16313 H1 27.369 16.313 -27.248 ho 3410 TIP3_3410    0.417
16314 H2 27.401 16.374 -28.799 ho 3410 TIP3_3410    0.417
16315 OH2 40.721 19.011 -35.815 oh 3411 TIP3_3411   -0.834
16316 H1 41.312 19.709 -35.445 ho 3411 TIP3_3411    0.417
16317 H2 40.550 19.419 -36.666 ho 3411 TIP3_3411    0.417
16318 OH2 40.732 3.840 -35.046 oh 3412 TIP3_3412   -0.834
16319 H1 39.792 4.023 -35.188 ho 3412 TIP3_3412    0.417
16320 H2 40.905 3.211 -35.757 ho 3412 TIP3_3412    0.417
16321 OH2 47.059 22.711 -30.727 oh 3413 TIP3_3413   -0.834
16322 H1 46.808 21.736 -30.726 ho 3413 TIP3_3413    0.417
16323 H2 46.198 23.078 -30.965 ho 3413 TIP3_3413    0.417
16324 OH2 38.548 15.677 -36.092 oh 3414 TIP3_3414   -0.834
16325 H1 39.066 15.680 -36.900 ho 3414 TIP3_3414    0.417
16326 H2 37.766 16.156 -36.319 ho 3414 TIP3_3414    0.417
16327 OH2 28.197 21.123 -30.142 oh 3415 TIP3_3415   -0.834
16328 H1 27.312 21.350 -30.527 ho 3415 TIP3_3415    0.417
16329 H2 28.265 20.191 -30.227 ho 3415 TIP3_3415    0.417
16330 OH2 40.781 22.794 -33.470 oh 3416 TIP3_3416   -0.834
16331 H1 40.939 22.336 -32.577 ho 3416 TIP3_3416    0.417
16332 H2 41.224 23.694 -33.414 ho 3416 TIP3_3416    0.417
16333 OH2 33.296 9.793 -34.192 oh 3417 TIP3_3417   -0.834
16334 H1 32.628 9.702 -34.886 ho 3417 TIP3_3417    0.417
16335 H2 33.912 10.487 -34.513 ho 3417 TIP3_3417    0.417
16336 OH2 36.444 4.458 -24.532 oh 3418 TIP3_3418   -0.834
16337 H1 36.689 4.004 -23.728 ho 3418 TIP3_3418    0.417
16338 H2 35.514 4.271 -24.551 ho 3418 TIP3_3418    0.417
16339 OH2 31.319 6.624 -29.894 oh 3419 TIP3_3419   -0.834
16340 H1 32.087 6.877 -30.459 ho 3419 TIP3_3419    0.417
16341 H2 30.764 7.421 -30.039 ho 3419 TIP3_3419    0.417
16342 OH2 35.320 18.797 -30.095 oh 3420 TIP3_3420   -0.834
16343 H1 35.286 18.722 -29.101 ho 3420 TIP3_3420    0.417
16344 H2 34.720 19.595 -30.285 ho 3420 TIP3_3420    0.417
16345 OH2 45.255 0.983 -36.871 oh 3421 TIP3_3421   -0.834
16346 H1 45.472 1.411 -36.046 ho 3421 TIP3_3421    0.417
16347 H2 44.868 0.098 -36.674 ho 3421 TIP3_3421    0.417
16348 OH2 43.297 8.419 -33.656 oh 3422 TIP3_3422   -0.834
16349 H1 43.053 9.034 -34.380 ho 3422 TIP3_3422    0.417
16350 H2 44.062 8.788 -33.230 ho 3422 TIP3_3422    0.417
16351 OH2 44.029 21.111 -32.929 oh 3423 TIP3_3423   -0.834
16352 H1 44.851 20.630 -33.156 ho 3423 TIP3_3423    0.417
16353 H2 44.348 21.658 -32.224 ho 3423 TIP3_3423    0.417
16354 OH2 48.323 4.785 -30.197 oh 3424 TIP3_3424   -0.834
16355 H1 49.151 5.268 -30.381 ho 3424 TIP3_3424    0.417
16356 H2 48.301 4.193 -30.864 ho 3424 TIP3_3424    0.417
16357 OH2 26.307 0.327 -29.867 oh 3425 TIP3_3425   -0.834
16358 H1 27.252 0.463 -29.923 ho 3425 TIP3_3425    0.417
16359 H2 26.122 -0.445 -30.528 ho 3425 TIP3_3425    0.417
16360 OH2 26.606 22.334 -34.660 oh 3426 TIP3_3426   -0.834
16361 H1 27.072 21.480 -34.823 ho 3426 TIP3_3426    0.417
16362 H2 27.317 22.972 -34.687 ho 3426 TIP3_3426    0.417
16363 OH2 45.958 17.715 -36.403 oh 3427 TIP3_3427   -0.834
16364 H1 46.161 18.671 -36.649 ho 3427 TIP3_3427    0.417
16365 H2 44.984 17.759 -36.472 ho 3427 TIP3_3427    0.417
16366 OH2 27.013 0.789 -25.125 oh 3428 TIP3_3428   -0.834
16367 H1 26.078 0.523 -24.994 ho 3428 TIP3_3428    0.417
16368 H2 27.118 1.044 -26.077 ho 3428 TIP3_3428    0.417
16369 OH2 46.374 20.513 -36.927 oh 3429 TIP3_3429   -0.834
16370 H1 46.721 21.434 -36.975 ho 3429 TIP3_3429    0.417
16371 H2 45.432 20.701 -37.129 ho 3429 TIP3_3429    0.417
16372 OH2 42.539 13.628 -24.607 oh 3430 TIP3_3430   -0.834
16373 H1 42.282 13.910 -25.451 ho 3430 TIP3_3430    0.417
16374 H2 42.486 12.693 -24.700 ho 3430 TIP3_3430    0.417
16375 OH2 40.586 10.909 -27.076 oh 3431 TIP3_3431   -0.834
16376 H1 40.692 11.788 -27.440 ho 3431 TIP3_3431    0.417
16377 H2 40.674 10.267 -27.850 ho 3431 TIP3_3431    0.417
16378 OH2 38.380 4.030 -37.190 oh 3432 TIP3_3432   -0.834
16379 H1 37.670 4.133 -36.514 ho 3432 TIP3_3432    0.417
16380 H2 38.194 4.795 -37.817 ho 3432 TIP3_3432    0.417
16381 OH2 30.574 8.132 -23.286 oh 3433 TIP3_3433   -0.834
16382 H1 30.124 7.329 -22.987 ho 3433 TIP3_3433    0.417
16383 H2 30.079 8.786 -22.794 ho 3433 TIP3_3433    0.417
16384 OH2 34.362 15.956 -37.768 oh 3434 TIP3_3434   -0.834
16385 H1 34.994 15.567 -38.374 ho 3434 TIP3_3434    0.417
16386 H2 33.951 15.184 -37.417 ho 3434 TIP3_3434    0.417
16387 OH2 42.850 13.594 -36.699 oh 3435 TIP3_3435   -0.834
16388 H1 42.343 14.365 -37.033 ho 3435 TIP3_3435    0.417
16389 H2 42.199 12.884 -36.797 ho 3435 TIP3_3435    0.417
16390 OH2 31.603 12.068 -26.343 oh 3436 TIP3_3436   -0.834
16391 H1 31.848 11.670 -25.550 ho 3436 TIP3_3436    0.417
16392 H2 31.714 13.036 -26.135 ho 3436 TIP3_3436    0.417
16393 OH2 38.755 0.794 -30.480 oh 3437 TIP3_3437   -0.834
16394 H1 37.826 0.669 -30.233 ho 3437 TIP3_3437    0.417
16395 H2 39.148 0.751 -29.626 ho 3437 TIP3_3437    0.417
16396 OH2 47.705 9.717 -30.818 oh 3438 TIP3_3438   -0.834
16397 H1 48.278 10.331 -31.298 ho 3438 TIP3_3438    0.417
16398 H2 48.304 9.311 -30.142 ho 3438 TIP3_3438    0.417
16399 OH2 41.037 5.640 -38.572 oh 3439 TIP3_3439   -0.834
16400 H1 41.257 4.742 -38.476 ho 3439 TIP3_3439    0.417
16401 H2 40.891 5.862 -37.613 ho 3439 TIP3_3439    0.417
16402 OH2 41.246 13.545 -28.100 oh 3440 TIP3_3440   -0.834
16403 H1 40.471 13.979 -28.513 ho 3440 TIP3_3440    0.417
16404 H2 41.619 14.257 -27.562 ho 3440 TIP3_3440    0.417
16405 OH2 33.876 3.437 -34.421 oh 3441 TIP3_3441   -0.834
16406 H1 34.227 2.577 -34.642 ho 3441 TIP3_3441    0.417
16407 H2 33.790 3.398 -33.467 ho 3441 TIP3_3441    0.417
16408 OH2 28.643 20.468 -33.767 oh 3442 TIP3_3442   -0.834
16409 H1 28.726 21.140 -33.114 ho 3442 TIP3_3442    0.417
16410 H2 29.449 19.957 -33.695 ho 3442 TIP3_3442    0.417
16411 OH2 32.111 12.051 -23.520 oh 3443 TIP3_3443   -0.834
16412 H1 31.259 11.733 -23.249 ho 3443 TIP3_3443    0.417
16413 H2 32.197 12.960 -23.232 ho 3443 TIP3_3443    0.417
16414 OH2 25.755 9.044 -27.077 oh 3444 TIP3_3444   -0.834
16415 H1 26.378 9.200 -26.344 ho 3444 TIP3_3444    0.417
16416 H2 25.331 8.221 -26.771 ho 3444 TIP3_3444    0.417
16417 OH2 49.484 11.412 -27.049 oh 3445 TIP3_3445   -0.834
16418 H1 49.485 11.471 -28.026 ho 3445 TIP3_3445    0.417
16419 H2 49.158 10.531 -26.932 ho 3445 TIP3_3445    0.417
16420 OH2 37.371 4.653 -28.110 oh 3446 TIP3_3446   -0.834
16421 H1 38.310 4.891 -28.015 ho 3446 TIP3_3446    0.417
16422 H2 36.978 5.381 -27.593 ho 3446 TIP3_3446    0.417
16423 OH2 42.254 3.667 -25.944 oh 3447 TIP3_3447   -0.834
16424 H1 42.862 4.322 -25.840 ho 3447 TIP3_3447    0.417
16425 H2 42.777 2.880 -26.124 ho 3447 TIP3_3447    0.417
16426 OH2 42.527 15.876 -38.405 oh 3448 TIP3_3448   -0.834
16427 H1 41.728 16.418 -38.660 ho 3448 TIP3_3448    0.417
16428 H2 43.195 16.022 -39.082 ho 3448 TIP3_3448    0.417
16429 OH2 35.259 24.203 -28.423 oh 3449 TIP3_3449   -0.834
16430 H1 35.610 24.789 -29.149 ho 3449 TIP3_3449    0.417
16431 H2 36.021 23.593 -28.288 ho 3449 TIP3_3449    0.417
16432 OH2 27.083 3.332 -32.674 oh 3450 TIP3_3450   -0.834
16433 H1 26.558 3.514 -31.885 ho 3450 TIP3_3450    0.417
16434 H2 26.496 2.737 -33.189 ho 3450 TIP3_3450    0.417
16435 OH2 45.306 1.975 -33.863 oh 3451 TIP3_3451   -0.834
16436 H1 44.429 2.310 -33.743 ho 3451 TIP3_3451    0.417
16437 H2 45.838 2.794 -33.981 ho 3451 TIP3_3451    0.417
16438 OH2 44.494 21.396 -23.596 oh 3452 TIP3_3452   -0.834
16439 H1 44.483 21.362 -22.638 ho 3452 TIP3_3452    0.417
16440 H2 45.477 21.377 -23.855 ho 3452 TIP3_3452    0.417
16441 OH2 38.235 47.943 -24.367 oh 3453 TIP3_3453   -0.834
16442 H1 37.613 47.525 -23.806 ho 3453 TIP3_3453    0.417
16443 H2 39.027 47.981 -23.820 ho 3453 TIP3_3453    0.417
16444 OH2 28.174 26.584 -23.024 oh 3454 TIP3_3454   -0.834
16445 H1 27.370 27.077 -23.190 ho 3454 TIP3_3454    0.417
16446 H2 28.270 25.961 -23.748 ho 3454 TIP3_3454    0.417
16447 OH2 30.461 31.754 -38.057 oh 3455 TIP3_3455   -0.834
16448 H1 31.412 31.627 -37.982 ho 3455 TIP3_3455    0.417
16449 H2 30.209 30.956 -38.566 ho 3455 TIP3_3455    0.417
16450 OH2 32.929 34.601 -35.678 oh 3456 TIP3_3456   -0.834
16451 H1 32.364 35.340 -36.088 ho 3456 TIP3_3456    0.417
16452 H2 32.318 34.011 -35.180 ho 3456 TIP3_3456    0.417
16453 OH2 38.850 56.054 -24.066 oh 3457 TIP3_3457   -0.834
16454 H1 39.176 56.533 -24.844 ho 3457 TIP3_3457    0.417
16455 H2 38.308 55.414 -24.550 ho 3457 TIP3_3457    0.417
16456 OH2 45.278 37.534 -22.928 oh 3458 TIP3_3458   -0.834
16457 H1 44.915 36.929 -23.603 ho 3458 TIP3_3458    0.417
16458 H2 46.131 37.052 -22.581 ho 3458 TIP3_3458    0.417
16459 OH2 31.385 50.655 -32.517 oh 3459 TIP3_3459   -0.834
16460 H1 31.585 50.839 -33.461 ho 3459 TIP3_3459    0.417
16461 H2 30.725 51.337 -32.270 ho 3459 TIP3_3459    0.417
16462 OH2 44.251 49.031 -24.981 oh 3460 TIP3_3460   -0.834
16463 H1 44.416 49.218 -24.033 ho 3460 TIP3_3460    0.417
16464 H2 45.120 48.940 -25.437 ho 3460 TIP3_3460    0.417
16465 OH2 25.792 53.251 -22.977 oh 3461 TIP3_3461   -0.834
16466 H1 25.967 53.811 -23.808 ho 3461 TIP3_3461    0.417
16467 H2 25.322 52.534 -23.339 ho 3461 TIP3_3461    0.417
16468 OH2 36.334 51.903 -28.696 oh 3462 TIP3_3462   -0.834
16469 H1 35.767 52.696 -28.424 ho 3462 TIP3_3462    0.417
16470 H2 36.791 51.796 -27.911 ho 3462 TIP3_3462    0.417
16471 OH2 33.890 46.041 -23.930 oh 3463 TIP3_3463   -0.834
16472 H1 33.698 46.572 -24.700 ho 3463 TIP3_3463    0.417
16473 H2 34.800 46.340 -23.756 ho 3463 TIP3_3463    0.417
16474 OH2 26.838 28.206 -24.602 oh 3464 TIP3_3464   -0.834
16475 H1 27.201 29.081 -24.455 ho 3464 TIP3_3464    0.417
16476 H2 27.117 27.999 -25.578 ho 3464 TIP3_3464    0.417
16477 OH2 45.882 56.566 -32.500 oh 3465 TIP3_3465   -0.834
16478 H1 46.771 56.259 -32.636 ho 3465 TIP3_3465    0.417
16479 H2 46.048 57.516 -32.610 ho 3465 TIP3_3465    0.417
16480 OH2 35.289 49.036 -37.707 oh 3466 TIP3_3466   -0.834
16481 H1 35.347 49.942 -37.982 ho 3466 TIP3_3466    0.417
16482 H2 36.189 48.864 -37.445 ho 3466 TIP3_3466    0.417
16483 OH2 40.005 39.526 -20.867 oh 3467 TIP3_3467   -0.834
16484 H1 40.742 38.941 -20.762 ho 3467 TIP3_3467    0.417
16485 H2 39.746 39.453 -21.812 ho 3467 TIP3_3467    0.417
16486 OH2 26.641 43.264 -31.864 oh 3468 TIP3_3468   -0.834
16487 H1 25.755 43.490 -31.992 ho 3468 TIP3_3468    0.417
16488 H2 26.981 44.003 -31.335 ho 3468 TIP3_3468    0.417
16489 OH2 41.886 48.849 -38.438 oh 3469 TIP3_3469   -0.834
16490 H1 42.726 49.125 -38.958 ho 3469 TIP3_3469    0.417
16491 H2 41.251 49.508 -38.750 ho 3469 TIP3_3469    0.417
16492 OH2 41.078 53.219 -23.537 oh 3470 TIP3_3470   -0.834
16493 H1 40.270 53.606 -23.810 ho 3470 TIP3_3470    0.417
16494 H2 41.487 53.107 -24.419 ho 3470 TIP3_3470    0.417
16495 OH2 32.294 55.336 -35.568 oh 3471 TIP3_3471   -0.834
16496 H1 32.542 56.062 -35.086 ho 3471 TIP3_3471    0.417
16497 H2 33.120 54.814 -35.585 ho 3471 TIP3_3471    0.417
16498 OH2 42.427 33.460 -24.938 oh 3472 TIP3_3472   -0.834
16499 H1 41.459 33.523 -24.957 ho 3472 TIP3_3472    0.417
16500 H2 42.637 32.769 -25.612 ho 3472 TIP3_3472    0.417
16501 OH2 31.648 51.409 -20.992 oh 3473 TIP3_3473   -0.834
16502 H1 32.044 52.167 -20.499 ho 3473 TIP3_3473    0.417
16503 H2 31.990 51.530 -21.849 ho 3473 TIP3_3473    0.417
16504 OH2 47.736 50.421 -34.182 oh 3474 TIP3_3474   -0.834
16505 H1 47.831 49.722 -34.918 ho 3474 TIP3_3474    0.417
16506 H2 46.816 50.685 -34.148 ho 3474 TIP3_3474    0.417
16507 OH2 41.096 33.405 -29.372 oh 3475 TIP3_3475   -0.834
16508 H1 41.085 34.390 -29.285 ho 3475 TIP3_3475    0.417
16509 H2 41.077 33.348 -30.379 ho 3475 TIP3_3475    0.417
16510 OH2 49.020 48.447 -31.354 oh 3476 TIP3_3476   -0.834
16511 H1 49.595 48.186 -30.658 ho 3476 TIP3_3476    0.417
16512 H2 48.148 48.534 -30.859 ho 3476 TIP3_3476    0.417
16513 OH2 26.661 31.681 -38.057 oh 3477 TIP3_3477   -0.834
16514 H1 26.943 30.739 -38.019 ho 3477 TIP3_3477    0.417
16515 H2 25.778 31.599 -38.517 ho 3477 TIP3_3477    0.417
16516 OH2 31.390 54.666 -32.829 oh 3478 TIP3_3478   -0.834
16517 H1 31.789 54.750 -33.709 ho 3478 TIP3_3478    0.417
16518 H2 30.913 55.472 -32.758 ho 3478 TIP3_3478    0.417
16519 OH2 33.932 52.387 -31.991 oh 3479 TIP3_3479   -0.834
16520 H1 33.209 52.019 -31.389 ho 3479 TIP3_3479    0.417
16521 H2 34.762 51.895 -31.786 ho 3479 TIP3_3479    0.417
16522 OH2 25.549 41.393 -29.634 oh 3480 TIP3_3480   -0.834
16523 H1 26.292 41.322 -28.984 ho 3480 TIP3_3480    0.417
16524 H2 25.665 42.283 -30.028 ho 3480 TIP3_3480    0.417
16525 OH2 38.870 32.474 -27.813 oh 3481 TIP3_3481   -0.834
16526 H1 38.209 33.073 -27.367 ho 3481 TIP3_3481    0.417
16527 H2 39.457 33.029 -28.341 ho 3481 TIP3_3481    0.417
16528 OH2 27.763 51.896 -27.696 oh 3482 TIP3_3482   -0.834
16529 H1 28.401 51.364 -28.255 ho 3482 TIP3_3482    0.417
16530 H2 27.751 52.725 -28.141 ho 3482 TIP3_3482    0.417
16531 OH2 31.612 28.396 -22.958 oh 3483 TIP3_3483   -0.834
16532 H1 31.138 27.987 -22.170 ho 3483 TIP3_3483    0.417
16533 H2 31.248 27.883 -23.694 ho 3483 TIP3_3483    0.417
16534 OH2 35.209 51.935 -38.027 oh 3484 TIP3_3484   -0.834
16535 H1 34.397 52.288 -38.480 ho 3484 TIP3_3484    0.417
16536 H2 35.523 52.672 -37.376 ho 3484 TIP3_3484    0.417
16537 OH2 29.884 29.081 -26.287 oh 3485 TIP3_3485   -0.834
16538 H1 29.970 29.746 -25.627 ho 3485 TIP3_3485    0.417
16539 H2 28.932 28.975 -26.407 ho 3485 TIP3_3485    0.417
16540 OH2 46.509 29.930 -33.679 oh 3486 TIP3_3486   -0.834
16541 H1 46.670 30.832 -33.722 ho 3486 TIP3_3486    0.417
16542 H2 47.198 29.587 -33.036 ho 3486 TIP3_3486    0.417
16543 OH2 46.892 34.490 -37.046 oh 3487 TIP3_3487   -0.834
16544 H1 47.662 33.965 -36.993 ho 3487 TIP3_3487    0.417
16545 H2 46.279 33.910 -37.442 ho 3487 TIP3_3487    0.417
16546 OH2 35.848 35.071 -21.369 oh 3488 TIP3_3488   -0.834
16547 H1 35.345 35.477 -22.093 ho 3488 TIP3_3488    0.417
16548 H2 36.663 35.551 -21.362 ho 3488 TIP3_3488    0.417
16549 OH2 41.846 50.884 -22.277 oh 3489 TIP3_3489   -0.834
16550 H1 41.543 50.668 -23.194 ho 3489 TIP3_3489    0.417
16551 H2 41.469 51.717 -22.238 ho 3489 TIP3_3489    0.417
16552 OH2 46.008 30.061 -21.543 oh 3490 TIP3_3490   -0.834
16553 H1 45.384 30.021 -20.793 ho 3490 TIP3_3490    0.417
16554 H2 46.508 29.210 -21.373 ho 3490 TIP3_3490    0.417
16555 OH2 37.922 27.911 -22.588 oh 3491 TIP3_3491   -0.834
16556 H1 37.421 27.431 -21.911 ho 3491 TIP3_3491    0.417
16557 H2 37.240 27.996 -23.299 ho 3491 TIP3_3491    0.417
16558 OH2 41.570 38.123 -38.044 oh 3492 TIP3_3492   -0.834
16559 H1 42.480 38.021 -38.452 ho 3492 TIP3_3492    0.417
16560 H2 41.282 39.096 -38.338 ho 3492 TIP3_3492    0.417
16561 OH2 30.458 38.097 -35.411 oh 3493 TIP3_3493   -0.834
16562 H1 30.673 38.019 -36.388 ho 3493 TIP3_3493    0.417
16563 H2 29.899 38.894 -35.343 ho 3493 TIP3_3493    0.417
16564 OH2 47.157 51.309 -29.345 oh 3494 TIP3_3494   -0.834
16565 H1 47.113 50.340 -29.410 ho 3494 TIP3_3494    0.417
16566 H2 46.349 51.567 -29.887 ho 3494 TIP3_3494    0.417
16567 OH2 48.390 54.506 -26.870 oh 3495 TIP3_3495   -0.834
16568 H1 49.282 54.326 -27.288 ho 3495 TIP3_3495    0.417
16569 H2 47.986 55.210 -27.391 ho 3495 TIP3_3495    0.417
16570 OH2 46.939 46.100 -24.672 oh 3496 TIP3_3496   -0.834
16571 H1 47.635 45.640 -25.179 ho 3496 TIP3_3496    0.417
16572 H2 47.375 46.374 -23.820 ho 3496 TIP3_3496    0.417
16573 OH2 30.450 34.067 -34.663 oh 3497 TIP3_3497   -0.834
16574 H1 29.722 33.840 -35.289 ho 3497 TIP3_3497    0.417
16575 H2 29.939 33.770 -33.883 ho 3497 TIP3_3497    0.417
16576 OH2 41.319 49.159 -33.925 oh 3498 TIP3_3498   -0.834
16577 H1 41.233 48.434 -33.225 ho 3498 TIP3_3498    0.417
16578 H2 41.314 49.950 -33.338 ho 3498 TIP3_3498    0.417
16579 OH2 40.465 32.955 -22.186 oh 3499 TIP3_3499   -0.834
16580 H1 40.150 32.979 -23.068 ho 3499 TIP3_3499    0.417
16581 H2 39.706 32.563 -21.694 ho 3499 TIP3_3499    0.417
16582 OH2 29.028 32.699 -27.224 oh 3500 TIP3_3500   -0.834
16583 H1 29.577 32.193 -27.862 ho 3500 TIP3_3500    0.417
16584 H2 28.171 32.320 -27.456 ho 3500 TIP3_3500    0.417
16585 OH2 47.572 31.242 -36.522 oh 3501 TIP3_3501   -0.834
16586 H1 46.705 30.845 -36.170 ho 3501 TIP3_3501    0.417
16587 H2 47.951 30.659 -37.142 ho 3501 TIP3_3501    0.417
16588 OH2 44.951 31.433 -35.694 oh 3502 TIP3_3502   -0.834
16589 H1 44.596 32.402 -35.541 ho 3502 TIP3_3502    0.417
16590 H2 44.554 30.931 -34.972 ho 3502 TIP3_3502    0.417
16591 OH2 34.630 46.547 -37.000 oh 3503 TIP3_3503   -0.834
16592 H1 34.601 47.471 -37.357 ho 3503 TIP3_3503    0.417
16593 H2 34.287 45.954 -37.688 ho 3503 TIP3_3503    0.417
16594 OH2 35.426 32.604 -37.596 oh 3504 TIP3_3504   -0.834
16595 H1 35.761 33.401 -38.006 ho 3504 TIP3_3504    0.417
16596 H2 35.248 32.889 -36.692 ho 3504 TIP3_3504    0.417
16597 OH2 49.169 56.178 -32.907 oh 3505 TIP3_3505   -0.834
16598 H1 49.122 56.962 -33.524 ho 3505 TIP3_3505    0.417
16599 H2 48.761 55.528 -33.519 ho 3505 TIP3_3505    0.417
16600 OH2 33.892 37.977 -34.679 oh 3506 TIP3_3506   -0.834
16601 H1 33.119 37.478 -34.557 ho 3506 TIP3_3506    0.417
16602 H2 34.342 37.557 -35.464 ho 3506 TIP3_3506    0.417
16603 OH2 46.404 48.372 -26.577 oh 3507 TIP3_3507   -0.834
16604 H1 47.157 48.832 -26.909 ho 3507 TIP3_3507    0.417
16605 H2 46.702 47.597 -26.064 ho 3507 TIP3_3507    0.417
16606 OH2 26.522 54.688 -25.200 oh 3508 TIP3_3508   -0.834
16607 H1 26.524 55.417 -25.842 ho 3508 TIP3_3508    0.417
16608 H2 27.430 54.403 -24.980 ho 3508 TIP3_3508    0.417
16609 OH2 43.953 27.950 -26.856 oh 3509 TIP3_3509   -0.834
16610 H1 43.909 28.386 -25.981 ho 3509 TIP3_3509    0.417
16611 H2 44.636 27.340 -26.658 ho 3509 TIP3_3509    0.417
16612 OH2 28.668 35.082 -24.096 oh 3510 TIP3_3510   -0.834
16613 H1 28.224 35.451 -24.899 ho 3510 TIP3_3510    0.417
16614 H2 28.092 35.379 -23.373 ho 3510 TIP3_3510    0.417
16615 OH2 46.619 48.461 -29.753 oh 3511 TIP3_3511   -0.834
16616 H1 46.079 48.002 -30.402 ho 3511 TIP3_3511    0.417
16617 H2 46.571 47.891 -28.929 ho 3511 TIP3_3511    0.417
16618 OH2 44.399 37.364 -38.020 oh 3512 TIP3_3512   -0.834
16619 H1 44.715 36.499 -38.402 ho 3512 TIP3_3512    0.417
16620 H2 44.091 37.059 -37.154 ho 3512 TIP3_3512    0.417
16621 OH2 35.674 33.909 -35.014 oh 3513 TIP3_3513   -0.834
16622 H1 35.998 33.871 -34.068 ho 3513 TIP3_3513    0.417
16623 H2 34.748 34.270 -34.925 ho 3513 TIP3_3513    0.417
16624 OH2 44.455 26.256 -23.183 oh 3514 TIP3_3514   -0.834
16625 H1 44.976 26.747 -23.745 ho 3514 TIP3_3514    0.417
16626 H2 43.570 26.641 -23.281 ho 3514 TIP3_3514    0.417
16627 OH2 37.868 49.879 -35.674 oh 3515 TIP3_3515   -0.834
16628 H1 38.178 50.390 -34.883 ho 3515 TIP3_3515    0.417
16629 H2 38.189 49.009 -35.497 ho 3515 TIP3_3515    0.417
16630 OH2 29.594 50.266 -24.800 oh 3516 TIP3_3516   -0.834
16631 H1 28.638 50.500 -24.804 ho 3516 TIP3_3516    0.417
16632 H2 29.758 49.897 -25.688 ho 3516 TIP3_3516    0.417
16633 OH2 26.124 47.962 -26.486 oh 3517 TIP3_3517   -0.834
16634 H1 26.837 47.901 -27.140 ho 3517 TIP3_3517    0.417
16635 H2 25.685 48.799 -26.690 ho 3517 TIP3_3517    0.417
16636 OH2 40.316 28.976 -24.967 oh 3518 TIP3_3518   -0.834
16637 H1 40.353 29.265 -25.935 ho 3518 TIP3_3518    0.417
16638 H2 39.585 29.533 -24.540 ho 3518 TIP3_3518    0.417
16639 OH2 49.093 53.900 -21.456 oh 3519 TIP3_3519   -0.834
16640 H1 48.326 54.488 -21.234 ho 3519 TIP3_3519    0.417
16641 H2 49.228 53.394 -20.588 ho 3519 TIP3_3519    0.417
16642 OH2 45.613 38.616 -28.934 oh 3520 TIP3_3520   -0.834
16643 H1 45.739 38.959 -29.782 ho 3520 TIP3_3520    0.417
16644 H2 44.619 38.816 -28.750 ho 3520 TIP3_3520    0.417
16645 OH2 40.529 30.982 -31.481 oh 3521 TIP3_3521   -0.834
16646 H1 41.398 30.632 -31.188 ho 3521 TIP3_3521    0.417
16647 H2 40.223 30.333 -32.133 ho 3521 TIP3_3521    0.417
16648 OH2 39.776 29.939 -27.557 oh 3522 TIP3_3522   -0.834
16649 H1 39.636 30.952 -27.748 ho 3522 TIP3_3522    0.417
16650 H2 38.865 29.712 -27.396 ho 3522 TIP3_3522    0.417
16651 OH2 43.327 25.375 -28.542 oh 3523 TIP3_3523   -0.834
16652 H1 43.825 25.141 -27.706 ho 3523 TIP3_3523    0.417
16653 H2 43.403 26.366 -28.620 ho 3523 TIP3_3523    0.417
16654 OH2 35.701 49.822 -32.461 oh 3524 TIP3_3524   -0.834
16655 H1 36.625 49.508 -32.384 ho 3524 TIP3_3524    0.417
16656 H2 35.377 49.718 -31.524 ho 3524 TIP3_3524    0.417
16657 OH2 32.125 51.008 -23.795 oh 3525 TIP3_3525   -0.834
16658 H1 32.305 51.912 -24.006 ho 3525 TIP3_3525    0.417
16659 H2 31.285 50.889 -24.266 ho 3525 TIP3_3525    0.417
16660 OH2 31.255 34.802 -39.636 oh 3526 TIP3_3526   -0.834
16661 H1 31.954 34.121 -39.329 ho 3526 TIP3_3526    0.417
16662 H2 30.459 34.264 -39.804 ho 3526 TIP3_3526    0.417
16663 OH2 38.533 35.550 -32.840 oh 3527 TIP3_3527   -0.834
16664 H1 37.608 35.309 -32.510 ho 3527 TIP3_3527    0.417
16665 H2 39.008 35.940 -32.075 ho 3527 TIP3_3527    0.417
16666 OH2 30.279 30.755 -28.543 oh 3528 TIP3_3528   -0.834
16667 H1 29.504 30.333 -29.033 ho 3528 TIP3_3528    0.417
16668 H2 30.564 29.986 -27.981 ho 3528 TIP3_3528    0.417
16669 OH2 38.550 46.522 -30.435 oh 3529 TIP3_3529   -0.834
16670 H1 38.279 46.744 -31.345 ho 3529 TIP3_3529    0.417
16671 H2 38.859 47.419 -30.086 ho 3529 TIP3_3529    0.417
16672 OH2 30.186 41.696 -27.928 oh 3530 TIP3_3530   -0.834
16673 H1 31.083 41.979 -28.184 ho 3530 TIP3_3530    0.417
16674 H2 30.337 40.832 -27.510 ho 3530 TIP3_3530    0.417
16675 OH2 43.812 54.340 -37.251 oh 3531 TIP3_3531   -0.834
16676 H1 43.883 54.394 -36.323 ho 3531 TIP3_3531    0.417
16677 H2 42.931 53.859 -37.453 ho 3531 TIP3_3531    0.417
16678 OH2 48.350 50.426 -37.351 oh 3532 TIP3_3532   -0.834
16679 H1 49.136 50.667 -37.925 ho 3532 TIP3_3532    0.417
16680 H2 47.685 51.158 -37.650 ho 3532 TIP3_3532    0.417
16681 OH2 33.156 42.564 -28.480 oh 3533 TIP3_3533   -0.834
16682 H1 33.355 43.345 -29.079 ho 3533 TIP3_3533    0.417
16683 H2 33.334 41.820 -29.126 ho 3533 TIP3_3533    0.417
16684 OH2 33.578 25.832 -33.649 oh 3534 TIP3_3534   -0.834
16685 H1 32.928 25.530 -34.307 ho 3534 TIP3_3534    0.417
16686 H2 33.563 26.801 -33.665 ho 3534 TIP3_3534    0.417
16687 OH2 30.160 38.744 -32.046 oh 3535 TIP3_3535   -0.834
16688 H1 31.048 38.422 -31.793 ho 3535 TIP3_3535    0.417
16689 H2 30.008 39.493 -31.472 ho 3535 TIP3_3535    0.417
16690 OH2 32.529 29.508 -38.604 oh 3536 TIP3_3536   -0.834
16691 H1 33.313 29.582 -39.143 ho 3536 TIP3_3536    0.417
16692 H2 31.783 29.511 -39.232 ho 3536 TIP3_3536    0.417
16693 OH2 37.889 54.660 -30.913 oh 3537 TIP3_3537   -0.834
16694 H1 37.578 54.796 -30.025 ho 3537 TIP3_3537    0.417
16695 H2 38.764 54.337 -30.788 ho 3537 TIP3_3537    0.417
16696 OH2 26.314 34.385 -32.827 oh 3538 TIP3_3538   -0.834
16697 H1 26.333 33.706 -33.556 ho 3538 TIP3_3538    0.417
16698 H2 27.056 34.953 -33.020 ho 3538 TIP3_3538    0.417
16699 OH2 25.449 32.366 -30.860 oh 3539 TIP3_3539   -0.834
16700 H1 25.202 31.479 -30.905 ho 3539 TIP3_3539    0.417
16701 H2 25.796 32.563 -31.744 ho 3539 TIP3_3539    0.417
16702 OH2 42.196 43.038 -26.223 oh 3540 TIP3_3540   -0.834
16703 H1 42.492 42.085 -26.250 ho 3540 TIP3_3540    0.417
16704 H2 41.868 43.082 -27.145 ho 3540 TIP3_3540    0.417
16705 OH2 44.644 49.996 -39.477 oh 3541 TIP3_3541   -0.834
16706 H1 44.757 50.535 -38.635 ho 3541 TIP3_3541    0.417
16707 H2 45.557 49.741 -39.711 ho 3541 TIP3_3541    0.417
16708 OH2 40.414 31.569 -37.499 oh 3542 TIP3_3542   -0.834
16709 H1 41.224 31.858 -37.872 ho 3542 TIP3_3542    0.417
16710 H2 39.808 31.700 -38.329 ho 3542 TIP3_3542    0.417
16711 OH2 48.915 41.203 -35.779 oh 3543 TIP3_3543   -0.834
16712 H1 49.358 40.936 -34.935 ho 3543 TIP3_3543    0.417
16713 H2 48.944 40.346 -36.232 ho 3543 TIP3_3543    0.417
16714 OH2 30.608 48.918 -27.041 oh 3544 TIP3_3544   -0.834
16715 H1 29.840 48.622 -27.455 ho 3544 TIP3_3544    0.417
16716 H2 31.037 49.336 -27.792 ho 3544 TIP3_3544    0.417
16717 OH2 47.412 32.606 -27.335 oh 3545 TIP3_3545   -0.834
16718 H1 46.852 32.980 -26.612 ho 3545 TIP3_3545    0.417
16719 H2 46.958 31.769 -27.507 ho 3545 TIP3_3545    0.417
16720 OH2 47.645 37.219 -36.872 oh 3546 TIP3_3546   -0.834
16721 H1 46.963 37.815 -36.501 ho 3546 TIP3_3546    0.417
16722 H2 47.260 36.274 -36.685 ho 3546 TIP3_3546    0.417
16723 OH2 37.614 52.273 -26.304 oh 3547 TIP3_3547   -0.834
16724 H1 38.124 52.950 -26.693 ho 3547 TIP3_3547    0.417
16725 H2 37.068 52.765 -25.707 ho 3547 TIP3_3547    0.417
16726 OH2 32.572 25.420 -36.522 oh 3548 TIP3_3548   -0.834
16727 H1 32.636 25.339 -37.497 ho 3548 TIP3_3548    0.417
16728 H2 31.628 25.234 -36.470 ho 3548 TIP3_3548    0.417
16729 OH2 42.995 50.202 -29.577 oh 3549 TIP3_3549   -0.834
16730 H1 43.853 50.548 -29.739 ho 3549 TIP3_3549    0.417
16731 H2 43.158 49.442 -28.926 ho 3549 TIP3_3549    0.417
16732 OH2 37.076 29.645 -26.434 oh 3550 TIP3_3550   -0.834
16733 H1 37.000 30.522 -26.852 ho 3550 TIP3_3550    0.417
16734 H2 36.827 29.835 -25.557 ho 3550 TIP3_3550    0.417
16735 OH2 36.642 44.030 -35.134 oh 3551 TIP3_3551   -0.834
16736 H1 35.752 43.786 -34.791 ho 3551 TIP3_3551    0.417
16737 H2 36.534 44.147 -36.103 ho 3551 TIP3_3551    0.417
16738 OH2 44.832 54.792 -34.480 oh 3552 TIP3_3552   -0.834
16739 H1 45.273 55.362 -33.807 ho 3552 TIP3_3552    0.417
16740 H2 44.367 54.183 -33.951 ho 3552 TIP3_3552    0.417
16741 OH2 42.905 53.143 -33.552 oh 3553 TIP3_3553   -0.834
16742 H1 42.174 53.506 -34.038 ho 3553 TIP3_3553    0.417
16743 H2 42.474 52.472 -33.020 ho 3553 TIP3_3553    0.417
16744 OH2 40.688 50.619 -24.974 oh 3554 TIP3_3554   -0.834
16745 H1 39.708 50.775 -25.087 ho 3554 TIP3_3554    0.417
16746 H2 40.726 49.688 -25.303 ho 3554 TIP3_3554    0.417
16747 OH2 43.637 33.990 -35.384 oh 3555 TIP3_3555   -0.834
16748 H1 42.786 33.621 -35.487 ho 3555 TIP3_3555    0.417
16749 H2 43.594 34.933 -35.375 ho 3555 TIP3_3555    0.417
16750 OH2 29.620 47.335 -32.870 oh 3556 TIP3_3556   -0.834
16751 H1 28.754 47.591 -32.410 ho 3556 TIP3_3556    0.417
16752 H2 30.178 47.349 -32.093 ho 3556 TIP3_3556    0.417
16753 OH2 41.133 37.593 -23.092 oh 3557 TIP3_3557   -0.834
16754 H1 40.352 37.769 -23.609 ho 3557 TIP3_3557    0.417
16755 H2 40.887 36.876 -22.489 ho 3557 TIP3_3557    0.417
16756 OH2 35.963 26.737 -28.210 oh 3558 TIP3_3558   -0.834
16757 H1 35.319 27.240 -28.666 ho 3558 TIP3_3558    0.417
16758 H2 36.709 27.167 -28.790 ho 3558 TIP3_3558    0.417
16759 OH2 49.212 26.714 -27.867 oh 3559 TIP3_3559   -0.834
16760 H1 48.582 26.361 -27.201 ho 3559 TIP3_3559    0.417
16761 H2 49.341 25.999 -28.475 ho 3559 TIP3_3559    0.417
16762 OH2 36.401 46.480 -22.864 oh 3560 TIP3_3560   -0.834
16763 H1 36.522 47.112 -22.144 ho 3560 TIP3_3560    0.417
16764 H2 36.255 45.672 -22.364 ho 3560 TIP3_3560    0.417
16765 OH2 30.141 26.611 -39.501 oh 3561 TIP3_3561   -0.834
16766 H1 29.697 26.110 -38.766 ho 3561 TIP3_3561    0.417
16767 H2 31.031 26.302 -39.414 ho 3561 TIP3_3561    0.417
16768 OH2 26.981 41.635 -21.337 oh 3562 TIP3_3562   -0.834
16769 H1 26.921 42.181 -20.471 ho 3562 TIP3_3562    0.417
16770 H2 27.656 42.117 -21.844 ho 3562 TIP3_3562    0.417
16771 OH2 41.321 44.495 -24.130 oh 3563 TIP3_3563   -0.834
16772 H1 41.960 44.159 -24.808 ho 3563 TIP3_3563    0.417
16773 H2 41.854 45.132 -23.612 ho 3563 TIP3_3563    0.417
16774 OH2 36.200 29.151 -36.529 oh 3564 TIP3_3564   -0.834
16775 H1 37.053 29.360 -36.072 ho 3564 TIP3_3564    0.417
16776 H2 35.572 29.426 -35.862 ho 3564 TIP3_3564    0.417
16777 OH2 33.024 48.598 -22.565 oh 3565 TIP3_3565   -0.834
16778 H1 33.902 48.477 -22.956 ho 3565 TIP3_3565    0.417
16779 H2 32.650 49.418 -22.883 ho 3565 TIP3_3565    0.417
16780 OH2 27.915 39.197 -36.607 oh 3566 TIP3_3566   -0.834
16781 H1 27.155 39.414 -36.084 ho 3566 TIP3_3566    0.417
16782 H2 27.719 38.333 -36.989 ho 3566 TIP3_3566    0.417
16783 OH2 36.606 52.709 -22.393 oh 3567 TIP3_3567   -0.834
16784 H1 36.696 51.784 -22.445 ho 3567 TIP3_3567    0.417
16785 H2 36.846 52.850 -21.482 ho 3567 TIP3_3567    0.417
16786 OH2 27.174 43.468 -37.788 oh 3568 TIP3_3568   -0.834
16787 H1 27.632 42.628 -37.797 ho 3568 TIP3_3568    0.417
16788 H2 27.931 44.120 -37.719 ho 3568 TIP3_3568    0.417
16789 OH2 45.692 43.742 -27.867 oh 3569 TIP3_3569   -0.834
16790 H1 45.174 43.581 -27.053 ho 3569 TIP3_3569    0.417
16791 H2 45.895 42.820 -28.145 ho 3569 TIP3_3569    0.417
16792 OH2 34.345 56.960 -34.096 oh 3570 TIP3_3570   -0.834
16793 H1 34.488 56.566 -33.167 ho 3570 TIP3_3570    0.417
16794 H2 33.899 57.828 -33.960 ho 3570 TIP3_3570    0.417
16795 OH2 32.881 28.518 -34.300 oh 3571 TIP3_3571   -0.834
16796 H1 33.550 29.225 -34.188 ho 3571 TIP3_3571    0.417
16797 H2 32.070 28.834 -33.831 ho 3571 TIP3_3571    0.417
16798 OH2 26.926 46.439 -22.973 oh 3572 TIP3_3572   -0.834
16799 H1 27.672 46.817 -23.455 ho 3572 TIP3_3572    0.417
16800 H2 27.398 45.912 -22.338 ho 3572 TIP3_3572    0.417
16801 OH2 30.341 54.958 -27.817 oh 3573 TIP3_3573   -0.834
16802 H1 29.511 54.806 -28.267 ho 3573 TIP3_3573    0.417
16803 H2 30.757 55.640 -28.384 ho 3573 TIP3_3573    0.417
16804 OH2 39.036 32.730 -33.356 oh 3574 TIP3_3574   -0.834
16805 H1 39.358 32.138 -32.654 ho 3574 TIP3_3574    0.417
16806 H2 38.886 33.589 -32.877 ho 3574 TIP3_3574    0.417
16807 OH2 34.882 34.156 -25.084 oh 3575 TIP3_3575   -0.834
16808 H1 34.574 34.753 -24.403 ho 3575 TIP3_3575    0.417
16809 H2 35.021 33.264 -24.711 ho 3575 TIP3_3575    0.417
16810 OH2 29.751 44.009 -37.186 oh 3576 TIP3_3576   -0.834
16811 H1 29.754 43.978 -36.240 ho 3576 TIP3_3576    0.417
16812 H2 30.300 43.306 -37.388 ho 3576 TIP3_3576    0.417
16813 OH2 35.295 39.066 -25.680 oh 3577 TIP3_3577   -0.834
16814 H1 35.592 39.067 -24.774 ho 3577 TIP3_3577    0.417
16815 H2 34.322 39.226 -25.650 ho 3577 TIP3_3577    0.417
16816 OH2 28.080 25.949 -28.212 oh 3578 TIP3_3578   -0.834
16817 H1 28.690 25.500 -28.828 ho 3578 TIP3_3578    0.417
16818 H2 27.196 25.556 -28.359 ho 3578 TIP3_3578    0.417
16819 OH2 45.488 38.173 -33.356 oh 3579 TIP3_3579   -0.834
16820 H1 44.634 37.697 -33.069 ho 3579 TIP3_3579    0.417
16821 H2 45.688 38.734 -32.550 ho 3579 TIP3_3579    0.417
16822 OH2 29.753 45.139 -34.525 oh 3580 TIP3_3580   -0.834
16823 H1 29.769 46.053 -34.154 ho 3580 TIP3_3580    0.417
16824 H2 30.663 45.031 -34.799 ho 3580 TIP3_3580    0.417
16825 OH2 36.515 47.342 -35.173 oh 3581 TIP3_3581   -0.834
16826 H1 35.875 46.911 -35.815 ho 3581 TIP3_3581    0.417
16827 H2 36.205 46.919 -34.306 ho 3581 TIP3_3581    0.417
16828 OH2 48.213 30.241 -31.172 oh 3582 TIP3_3582   -0.834
16829 H1 49.050 29.674 -30.885 ho 3582 TIP3_3582    0.417
16830 H2 48.460 31.086 -30.826 ho 3582 TIP3_3582    0.417
16831 OH2 42.517 36.858 -26.990 oh 3583 TIP3_3583   -0.834
16832 H1 42.640 36.773 -27.961 ho 3583 TIP3_3583    0.417
16833 H2 42.289 37.781 -26.870 ho 3583 TIP3_3583    0.417
16834 OH2 40.027 36.249 -30.194 oh 3584 TIP3_3584   -0.834
16835 H1 40.636 35.953 -30.896 ho 3584 TIP3_3584    0.417
16836 H2 39.929 37.194 -30.455 ho 3584 TIP3_3584    0.417
16837 OH2 46.975 55.136 -36.634 oh 3585 TIP3_3585   -0.834
16838 H1 46.739 54.870 -35.758 ho 3585 TIP3_3585    0.417
16839 H2 46.767 56.134 -36.723 ho 3585 TIP3_3585    0.417
16840 OH2 37.793 38.364 -27.832 oh 3586 TIP3_3586   -0.834
16841 H1 37.787 38.548 -28.777 ho 3586 TIP3_3586    0.417
16842 H2 36.995 38.794 -27.601 ho 3586 TIP3_3586    0.417
16843 OH2 33.181 48.465 -32.363 oh 3587 TIP3_3587   -0.834
16844 H1 34.007 48.937 -32.297 ho 3587 TIP3_3587    0.417
16845 H2 32.517 49.117 -32.688 ho 3587 TIP3_3587    0.417
16846 OH2 42.791 37.260 -35.255 oh 3588 TIP3_3588   -0.834
16847 H1 42.329 38.095 -35.387 ho 3588 TIP3_3588    0.417
16848 H2 43.004 37.302 -34.372 ho 3588 TIP3_3588    0.417
16849 OH2 39.682 36.334 -25.612 oh 3589 TIP3_3589   -0.834
16850 H1 40.236 36.941 -26.124 ho 3589 TIP3_3589    0.417
16851 H2 39.266 35.683 -26.237 ho 3589 TIP3_3589    0.417
16852 OH2 45.846 45.362 -35.259 oh 3590 TIP3_3590   -0.834
16853 H1 45.810 45.846 -34.356 ho 3590 TIP3_3590    0.417
16854 H2 45.840 44.389 -35.065 ho 3590 TIP3_3590    0.417
16855 OH2 28.174 36.159 -34.046 oh 3591 TIP3_3591   -0.834
16856 H1 28.904 36.073 -34.648 ho 3591 TIP3_3591    0.417
16857 H2 28.204 37.104 -33.871 ho 3591 TIP3_3591    0.417
16858 OH2 41.419 56.379 -35.573 oh 3592 TIP3_3592   -0.834
16859 H1 41.503 56.761 -34.716 ho 3592 TIP3_3592    0.417
16860 H2 41.337 55.424 -35.426 ho 3592 TIP3_3592    0.417
16861 OH2 31.703 51.593 -35.152 oh 3593 TIP3_3593   -0.834
16862 H1 32.407 52.207 -35.239 ho 3593 TIP3_3593    0.417
16863 H2 31.716 51.068 -35.987 ho 3593 TIP3_3593    0.417
16864 OH2 37.440 37.407 -34.630 oh 3594 TIP3_3594   -0.834
16865 H1 36.652 36.887 -34.895 ho 3594 TIP3_3594    0.417
16866 H2 37.893 36.867 -34.023 ho 3594 TIP3_3594    0.417
16867 OH2 44.659 50.552 -22.551 oh 3595 TIP3_3595   -0.834
16868 H1 45.182 51.346 -22.501 ho 3595 TIP3_3595    0.417
16869 H2 43.734 50.858 -22.619 ho 3595 TIP3_3595    0.417
16870 OH2 43.766 48.787 -36.016 oh 3596 TIP3_3596   -0.834
16871 H1 43.985 48.007 -36.543 ho 3596 TIP3_3596    0.417
16872 H2 43.436 48.402 -35.218 ho 3596 TIP3_3596    0.417
16873 OH2 30.348 40.459 -34.012 oh 3597 TIP3_3597   -0.834
16874 H1 29.942 41.211 -33.535 ho 3597 TIP3_3597    0.417
16875 H2 29.964 39.679 -33.578 ho 3597 TIP3_3597    0.417
16876 OH2 39.354 26.352 -25.996 oh 3598 TIP3_3598   -0.834
16877 H1 39.694 25.623 -25.435 ho 3598 TIP3_3598    0.417
16878 H2 39.573 27.195 -25.574 ho 3598 TIP3_3598    0.417
16879 OH2 45.395 34.570 -28.366 oh 3599 TIP3_3599   -0.834
16880 H1 46.018 33.889 -28.144 ho 3599 TIP3_3599    0.417
16881 H2 45.725 35.313 -27.898 ho 3599 TIP3_3599    0.417
16882 OH2 28.117 36.819 -29.930 oh 3600 TIP3_3600   -0.834
16883 H1 28.490 37.496 -30.477 ho 3600 TIP3_3600    0.417
16884 H2 28.937 36.583 -29.461 ho 3600 TIP3_3600    0.417
16885 OH2 43.410 26.973 -31.420 oh 3601 TIP3_3601   -0.834
16886 H1 43.658 27.915 -31.477 ho 3601 TIP3_3601    0.417
16887 H2 43.788 26.567 -32.250 ho 3601 TIP3_3601    0.417
16888 OH2 35.309 46.500 -28.519 oh 3602 TIP3_3602   -0.834
16889 H1 36.014 45.928 -28.815 ho 3602 TIP3_3602    0.417
16890 H2 34.595 45.961 -28.817 ho 3602 TIP3_3602    0.417
16891 OH2 27.710 31.185 -32.460 oh 3603 TIP3_3603   -0.834
16892 H1 27.467 31.236 -33.439 ho 3603 TIP3_3603    0.417
16893 H2 28.410 31.855 -32.420 ho 3603 TIP3_3603    0.417
16894 OH2 49.165 31.819 -34.225 oh 3604 TIP3_3604   -0.834
16895 H1 48.867 31.610 -35.127 ho 3604 TIP3_3604    0.417
16896 H2 48.362 32.177 -33.749 ho 3604 TIP3_3604    0.417
16897 OH2 37.493 34.451 -37.785 oh 3605 TIP3_3605   -0.834
16898 H1 37.908 34.840 -37.013 ho 3605 TIP3_3605    0.417
16899 H2 37.982 33.641 -37.961 ho 3605 TIP3_3605    0.417
16900 OH2 42.708 45.770 -27.131 oh 3606 TIP3_3606   -0.834
16901 H1 41.704 45.781 -27.220 ho 3606 TIP3_3606    0.417
16902 H2 42.894 44.948 -26.677 ho 3606 TIP3_3606    0.417
16903 OH2 28.248 47.876 -36.299 oh 3607 TIP3_3607   -0.834
16904 H1 27.662 47.334 -35.752 ho 3607 TIP3_3607    0.417
16905 H2 29.106 47.410 -36.219 ho 3607 TIP3_3607    0.417
16906 OH2 42.422 28.400 -35.798 oh 3608 TIP3_3608   -0.834
16907 H1 43.195 28.434 -36.402 ho 3608 TIP3_3608    0.417
16908 H2 42.397 27.425 -35.593 ho 3608 TIP3_3608    0.417
16909 OH2 40.398 26.552 -21.754 oh 3609 TIP3_3609   -0.834
16910 H1 41.016 26.951 -22.434 ho 3609 TIP3_3609    0.417
16911 H2 39.574 27.011 -21.891 ho 3609 TIP3_3609    0.417
16912 OH2 26.414 56.430 -27.698 oh 3610 TIP3_3610   -0.834
16913 H1 27.075 55.965 -28.249 ho 3610 TIP3_3610    0.417
16914 H2 26.742 57.354 -27.659 ho 3610 TIP3_3610    0.417
16915 OH2 43.193 42.970 -30.250 oh 3611 TIP3_3611   -0.834
16916 H1 42.958 43.911 -30.167 ho 3611 TIP3_3611    0.417
16917 H2 44.151 42.990 -30.353 ho 3611 TIP3_3611    0.417
16918 OH2 25.289 35.538 -26.532 oh 3612 TIP3_3612   -0.834
16919 H1 25.286 35.937 -27.398 ho 3612 TIP3_3612    0.417
16920 H2 26.262 35.357 -26.331 ho 3612 TIP3_3612    0.417
16921 OH2 45.969 26.125 -30.175 oh 3613 TIP3_3613   -0.834
16922 H1 46.514 26.840 -29.758 ho 3613 TIP3_3613    0.417
16923 H2 45.448 26.633 -30.822 ho 3613 TIP3_3613    0.417
16924 OH2 31.968 36.629 -37.647 oh 3614 TIP3_3614   -0.834
16925 H1 31.575 35.896 -38.193 ho 3614 TIP3_3614    0.417
16926 H2 32.083 37.290 -38.410 ho 3614 TIP3_3614    0.417
16927 OH2 28.759 38.253 -24.857 oh 3615 TIP3_3615   -0.834
16928 H1 28.552 38.546 -23.941 ho 3615 TIP3_3615    0.417
16929 H2 27.862 38.321 -25.260 ho 3615 TIP3_3615    0.417
16930 OH2 31.857 36.138 -33.171 oh 3616 TIP3_3616   -0.834
16931 H1 31.107 36.750 -33.200 ho 3616 TIP3_3616    0.417
16932 H2 31.480 35.387 -33.647 ho 3616 TIP3_3616    0.417
16933 OH2 41.470 53.089 -37.819 oh 3617 TIP3_3617   -0.834
16934 H1 41.854 52.230 -37.501 ho 3617 TIP3_3617    0.417
16935 H2 40.533 52.856 -37.912 ho 3617 TIP3_3617    0.417
16936 OH2 36.062 54.274 -35.814 oh 3618 TIP3_3618   -0.834
16937 H1 35.233 54.104 -35.328 ho 3618 TIP3_3618    0.417
16938 H2 36.736 54.011 -35.161 ho 3618 TIP3_3618    0.417
16939 OH2 32.287 35.172 -26.185 oh 3619 TIP3_3619   -0.834
16940 H1 31.631 34.473 -25.923 ho 3619 TIP3_3619    0.417
16941 H2 33.119 34.669 -26.148 ho 3619 TIP3_3619    0.417
16942 OH2 48.031 54.489 -24.238 oh 3620 TIP3_3620   -0.834
16943 H1 48.931 54.176 -24.113 ho 3620 TIP3_3620    0.417
16944 H2 47.945 54.581 -25.203 ho 3620 TIP3_3620    0.417
16945 OH2 38.068 27.914 -29.851 oh 3621 TIP3_3621   -0.834
16946 H1 37.803 27.473 -30.705 ho 3621 TIP3_3621    0.417
16947 H2 39.010 27.849 -29.888 ho 3621 TIP3_3621    0.417
16948 OH2 28.406 25.117 -25.507 oh 3622 TIP3_3622   -0.834
16949 H1 28.348 25.244 -26.454 ho 3622 TIP3_3622    0.417
16950 H2 29.378 25.190 -25.276 ho 3622 TIP3_3622    0.417
16951 OH2 33.782 42.187 -37.638 oh 3623 TIP3_3623   -0.834
16952 H1 33.004 41.786 -37.203 ho 3623 TIP3_3623    0.417
16953 H2 34.140 41.422 -38.030 ho 3623 TIP3_3623    0.417
16954 OH2 34.263 53.274 -27.577 oh 3624 TIP3_3624   -0.834
16955 H1 33.946 53.886 -26.952 ho 3624 TIP3_3624    0.417
16956 H2 33.797 53.532 -28.415 ho 3624 TIP3_3624    0.417
16957 OH2 47.010 36.028 -21.553 oh 3625 TIP3_3625   -0.834
16958 H1 47.719 36.061 -22.299 ho 3625 TIP3_3625    0.417
16959 H2 47.590 36.140 -20.780 ho 3625 TIP3_3625    0.417
16960 OH2 46.148 27.788 -35.264 oh 3626 TIP3_3626   -0.834
16961 H1 46.231 28.514 -34.719 ho 3626 TIP3_3626    0.417
16962 H2 47.035 27.745 -35.702 ho 3626 TIP3_3626    0.417
16963 OH2 28.005 54.797 -36.973 oh 3627 TIP3_3627   -0.834
16964 H1 27.830 53.988 -36.504 ho 3627 TIP3_3627    0.417
16965 H2 28.779 55.190 -36.587 ho 3627 TIP3_3627    0.417
16966 OH2 49.048 30.388 -23.267 oh 3628 TIP3_3628   -0.834
16967 H1 49.171 30.861 -22.391 ho 3628 TIP3_3628    0.417
16968 H2 48.125 30.371 -23.401 ho 3628 TIP3_3628    0.417
16969 OH2 47.042 35.769 -33.524 oh 3629 TIP3_3629   -0.834
16970 H1 47.762 36.166 -32.936 ho 3629 TIP3_3629    0.417
16971 H2 46.379 36.501 -33.654 ho 3629 TIP3_3629    0.417
16972 OH2 38.663 51.432 -33.471 oh 3630 TIP3_3630   -0.834
16973 H1 38.851 51.261 -32.518 ho 3630 TIP3_3630    0.417
16974 H2 38.355 52.375 -33.468 ho 3630 TIP3_3630    0.417
16975 OH2 45.736 41.419 -21.447 oh 3631 TIP3_3631   -0.834
16976 H1 45.764 41.329 -22.443 ho 3631 TIP3_3631    0.417
16977 H2 46.696 41.483 -21.213 ho 3631 TIP3_3631    0.417
16978 OH2 46.862 52.684 -38.306 oh 3632 TIP3_3632   -0.834
16979 H1 46.911 53.691 -38.287 ho 3632 TIP3_3632    0.417
16980 H2 45.977 52.455 -38.015 ho 3632 TIP3_3632    0.417
16981 OH2 45.520 30.703 -28.575 oh 3633 TIP3_3633   -0.834
16982 H1 44.750 30.159 -28.280 ho 3633 TIP3_3633    0.417
16983 H2 45.178 31.209 -29.402 ho 3633 TIP3_3633    0.417
16984 OH2 32.027 27.224 -26.589 oh 3634 TIP3_3634   -0.834
16985 H1 31.185 27.801 -26.465 ho 3634 TIP3_3634    0.417
16986 H2 31.692 26.403 -26.258 ho 3634 TIP3_3634    0.417
16987 OH2 28.207 38.979 -22.228 oh 3635 TIP3_3635   -0.834
16988 H1 28.947 39.082 -21.627 ho 3635 TIP3_3635    0.417
16989 H2 27.585 39.685 -22.079 ho 3635 TIP3_3635    0.417
16990 OH2 34.078 36.967 -27.266 oh 3636 TIP3_3636   -0.834
16991 H1 33.228 36.561 -27.007 ho 3636 TIP3_3636    0.417
16992 H2 34.512 37.194 -26.440 ho 3636 TIP3_3636    0.417
16993 OH2 37.001 45.877 -25.892 oh 3637 TIP3_3637   -0.834
16994 H1 37.060 46.566 -25.226 ho 3637 TIP3_3637    0.417
16995 H2 36.186 46.104 -26.371 ho 3637 TIP3_3637    0.417
16996 OH2 31.142 36.858 -23.948 oh 3638 TIP3_3638   -0.834
16997 H1 30.762 37.642 -24.325 ho 3638 TIP3_3638    0.417
16998 H2 30.566 36.146 -24.339 ho 3638 TIP3_3638    0.417
16999 OH2 35.407 31.649 -31.112 oh 3639 TIP3_3639   -0.834
17000 H1 34.810 32.215 -30.614 ho 3639 TIP3_3639    0.417
17001 H2 36.077 31.417 -30.453 ho 3639 TIP3_3639    0.417
17002 OH2 43.338 35.970 -29.881 oh 3640 TIP3_3640   -0.834
17003 H1 44.088 35.563 -29.468 ho 3640 TIP3_3640    0.417
17004 H2 43.311 35.591 -30.783 ho 3640 TIP3_3640    0.417
17005 OH2 32.319 39.432 -24.985 oh 3641 TIP3_3641   -0.834
17006 H1 32.633 40.319 -25.258 ho 3641 TIP3_3641    0.417
17007 H2 32.702 39.303 -24.067 ho 3641 TIP3_3641    0.417
17008 OH2 39.578 48.489 -22.150 oh 3642 TIP3_3642   -0.834
17009 H1 40.476 48.267 -22.139 ho 3642 TIP3_3642    0.417
17010 H2 39.359 48.484 -21.229 ho 3642 TIP3_3642    0.417
17011 OH2 35.030 36.441 -36.566 oh 3643 TIP3_3643   -0.834
17012 H1 34.274 35.827 -36.578 ho 3643 TIP3_3643    0.417
17013 H2 35.533 36.362 -37.339 ho 3643 TIP3_3643    0.417
17014 OH2 28.786 41.318 -38.690 oh 3644 TIP3_3644   -0.834
17015 H1 28.781 40.388 -38.804 ho 3644 TIP3_3644    0.417
17016 H2 29.528 41.580 -39.219 ho 3644 TIP3_3644    0.417
17017 OH2 46.606 35.299 -30.636 oh 3645 TIP3_3645   -0.834
17018 H1 47.239 34.620 -30.471 ho 3645 TIP3_3645    0.417
17019 H2 45.962 35.222 -29.901 ho 3645 TIP3_3645    0.417
17020 OH2 40.022 45.855 -27.169 oh 3646 TIP3_3646   -0.834
17021 H1 39.222 45.809 -26.708 ho 3646 TIP3_3646    0.417
17022 H2 39.673 46.057 -28.082 ho 3646 TIP3_3646    0.417
17023 OH2 32.574 44.420 -35.283 oh 3647 TIP3_3647   -0.834
17024 H1 32.704 44.335 -36.321 ho 3647 TIP3_3647    0.417
17025 H2 32.970 45.255 -35.043 ho 3647 TIP3_3647    0.417
17026 OH2 31.901 46.557 -30.674 oh 3648 TIP3_3648   -0.834
17027 H1 32.410 45.744 -30.616 ho 3648 TIP3_3648    0.417
17028 H2 32.474 47.077 -31.241 ho 3648 TIP3_3648    0.417
17029 OH2 41.126 39.701 -35.423 oh 3649 TIP3_3649   -0.834
17030 H1 41.070 39.272 -36.274 ho 3649 TIP3_3649    0.417
17031 H2 41.805 40.454 -35.555 ho 3649 TIP3_3649    0.417
17032 OH2 35.219 50.985 -34.833 oh 3650 TIP3_3650   -0.834
17033 H1 35.691 50.282 -35.221 ho 3650 TIP3_3650    0.417
17034 H2 35.349 50.758 -33.869 ho 3650 TIP3_3650    0.417
17035 OH2 38.263 48.513 -32.674 oh 3651 TIP3_3651   -0.834
17036 H1 39.083 48.900 -32.311 ho 3651 TIP3_3651    0.417
17037 H2 38.669 47.803 -33.261 ho 3651 TIP3_3651    0.417
17038 OH2 30.555 56.449 -37.376 oh 3652 TIP3_3652   -0.834
17039 H1 30.958 57.299 -37.283 ho 3652 TIP3_3652    0.417
17040 H2 31.036 55.896 -36.785 ho 3652 TIP3_3652    0.417
17041 OH2 44.892 48.014 -21.949 oh 3653 TIP3_3653   -0.834
17042 H1 45.854 48.005 -21.812 ho 3653 TIP3_3653    0.417
17043 H2 44.701 49.011 -22.047 ho 3653 TIP3_3653    0.417
17044 OH2 37.414 34.004 -26.091 oh 3654 TIP3_3654   -0.834
17045 H1 36.523 33.931 -25.816 ho 3654 TIP3_3654    0.417
17046 H2 37.375 34.766 -26.714 ho 3654 TIP3_3654    0.417
17047 OH2 34.016 40.690 -30.515 oh 3655 TIP3_3655   -0.834
17048 H1 34.158 39.769 -30.299 ho 3655 TIP3_3655    0.417
17049 H2 33.537 40.554 -31.348 ho 3655 TIP3_3655    0.417
17050 OH2 41.192 47.403 -36.218 oh 3656 TIP3_3656   -0.834
17051 H1 41.363 47.881 -35.378 ho 3656 TIP3_3656    0.417
17052 H2 41.427 48.065 -36.914 ho 3656 TIP3_3656    0.417
17053 OH2 41.318 47.811 -31.445 oh 3657 TIP3_3657   -0.834
17054 H1 41.032 48.275 -30.656 ho 3657 TIP3_3657    0.417
17055 H2 42.286 47.916 -31.418 ho 3657 TIP3_3657    0.417
17056 OH2 48.513 57.168 -38.444 oh 3658 TIP3_3658   -0.834
17057 H1 47.857 56.774 -39.120 ho 3658 TIP3_3658    0.417
17058 H2 49.399 56.777 -38.696 ho 3658 TIP3_3658    0.417
17059 OH2 35.550 34.544 -28.685 oh 3659 TIP3_3659   -0.834
17060 H1 35.055 35.343 -28.604 ho 3659 TIP3_3659    0.417
17061 H2 36.460 34.846 -28.663 ho 3659 TIP3_3659    0.417
17062 OH2 48.331 46.619 -21.931 oh 3660 TIP3_3660   -0.834
17063 H1 48.137 47.516 -21.544 ho 3660 TIP3_3660    0.417
17064 H2 47.663 45.985 -21.550 ho 3660 TIP3_3660    0.417
17065 OH2 43.013 41.612 -21.134 oh 3661 TIP3_3661   -0.834
17066 H1 43.961 41.763 -21.130 ho 3661 TIP3_3661    0.417
17067 H2 42.903 40.852 -21.767 ho 3661 TIP3_3661    0.417
17068 OH2 42.210 28.046 -23.228 oh 3662 TIP3_3662   -0.834
17069 H1 41.775 28.623 -23.908 ho 3662 TIP3_3662    0.417
17070 H2 42.681 28.729 -22.745 ho 3662 TIP3_3662    0.417
17071 OH2 29.649 52.814 -31.678 oh 3663 TIP3_3663   -0.834
17072 H1 30.269 53.535 -31.993 ho 3663 TIP3_3663    0.417
17073 H2 28.772 53.055 -32.040 ho 3663 TIP3_3663    0.417
17074 OH2 32.402 53.660 -29.639 oh 3664 TIP3_3664   -0.834
17075 H1 31.609 54.153 -29.466 ho 3664 TIP3_3664    0.417
17076 H2 32.637 53.912 -30.514 ho 3664 TIP3_3664    0.417
17077 OH2 31.249 52.735 -26.332 oh 3665 TIP3_3665   -0.834
17078 H1 31.463 53.358 -27.002 ho 3665 TIP3_3665    0.417
17079 H2 32.090 52.243 -26.152 ho 3665 TIP3_3665    0.417
17080 OH2 37.113 25.921 -35.058 oh 3666 TIP3_3666   -0.834
17081 H1 37.819 25.635 -34.438 ho 3666 TIP3_3666    0.417
17082 H2 36.814 26.896 -34.777 ho 3666 TIP3_3666    0.417
17083 OH2 45.914 43.288 -30.772 oh 3667 TIP3_3667   -0.834
17084 H1 46.719 43.468 -30.181 ho 3667 TIP3_3667    0.417
17085 H2 46.059 43.875 -31.484 ho 3667 TIP3_3667    0.417
17086 OH2 38.755 55.376 -21.340 oh 3668 TIP3_3668   -0.834
17087 H1 37.801 55.330 -21.190 ho 3668 TIP3_3668    0.417
17088 H2 38.884 55.626 -22.222 ho 3668 TIP3_3668    0.417
17089 OH2 45.843 40.003 -31.408 oh 3669 TIP3_3669   -0.834
17090 H1 46.616 40.655 -31.476 ho 3669 TIP3_3669    0.417
17091 H2 45.048 40.519 -31.445 ho 3669 TIP3_3669    0.417
17092 OH2 28.628 40.453 -30.316 oh 3670 TIP3_3670   -0.834
17093 H1 28.604 41.368 -30.635 ho 3670 TIP3_3670    0.417
17094 H2 28.266 40.478 -29.408 ho 3670 TIP3_3670    0.417
17095 OH2 38.540 47.220 -37.252 oh 3671 TIP3_3671   -0.834
17096 H1 37.965 47.475 -36.538 ho 3671 TIP3_3671    0.417
17097 H2 39.428 47.404 -36.926 ho 3671 TIP3_3671    0.417
17098 OH2 48.418 52.184 -31.936 oh 3672 TIP3_3672   -0.834
17099 H1 48.266 51.649 -31.124 ho 3672 TIP3_3672    0.417
17100 H2 48.361 51.508 -32.646 ho 3672 TIP3_3672    0.417
17101 OH2 38.891 26.919 -37.008 oh 3673 TIP3_3673   -0.834
17102 H1 39.198 27.681 -36.578 ho 3673 TIP3_3673    0.417
17103 H2 38.212 26.577 -36.422 ho 3673 TIP3_3673    0.417
17104 OH2 43.651 29.649 -31.579 oh 3674 TIP3_3674   -0.834
17105 H1 44.326 30.322 -31.432 ho 3674 TIP3_3674    0.417
17106 H2 43.363 29.744 -32.507 ho 3674 TIP3_3674    0.417
17107 OH2 28.297 43.771 -22.697 oh 3675 TIP3_3675   -0.834
17108 H1 28.913 44.272 -22.175 ho 3675 TIP3_3675    0.417
17109 H2 28.616 43.935 -23.592 ho 3675 TIP3_3675    0.417
17110 OH2 39.269 35.001 -35.631 oh 3676 TIP3_3676   -0.834
17111 H1 39.973 35.528 -35.248 ho 3676 TIP3_3676    0.417
17112 H2 38.690 34.859 -34.908 ho 3676 TIP3_3676    0.417
17113 OH2 34.016 29.086 -31.186 oh 3677 TIP3_3677   -0.834
17114 H1 34.377 30.001 -31.187 ho 3677 TIP3_3677    0.417
17115 H2 33.726 28.741 -30.339 ho 3677 TIP3_3677    0.417
17116 OH2 41.008 42.797 -28.590 oh 3678 TIP3_3678   -0.834
17117 H1 41.695 42.702 -29.316 ho 3678 TIP3_3678    0.417
17118 H2 40.186 42.521 -29.058 ho 3678 TIP3_3678    0.417
17119 OH2 38.912 51.462 -37.714 oh 3679 TIP3_3679   -0.834
17120 H1 38.667 52.388 -37.461 ho 3679 TIP3_3679    0.417
17121 H2 38.488 50.916 -37.000 ho 3679 TIP3_3679    0.417
17122 OH2 34.637 56.703 -27.639 oh 3680 TIP3_3680   -0.834
17123 H1 34.551 57.630 -27.969 ho 3680 TIP3_3680    0.417
17124 H2 35.377 56.806 -26.973 ho 3680 TIP3_3680    0.417
17125 OH2 42.937 29.657 -28.797 oh 3681 TIP3_3681   -0.834
17126 H1 42.918 28.922 -28.121 ho 3681 TIP3_3681    0.417
17127 H2 42.704 29.173 -29.585 ho 3681 TIP3_3681    0.417
17128 OH2 40.430 28.274 -32.593 oh 3682 TIP3_3682   -0.834
17129 H1 40.458 27.741 -31.843 ho 3682 TIP3_3682    0.417
17130 H2 40.933 27.740 -33.230 ho 3682 TIP3_3682    0.417
17131 OH2 44.287 47.590 -31.270 oh 3683 TIP3_3683   -0.834
17132 H1 44.768 47.291 -31.966 ho 3683 TIP3_3683    0.417
17133 H2 44.323 46.826 -30.633 ho 3683 TIP3_3683    0.417
17134 OH2 36.187 44.104 -21.319 oh 3684 TIP3_3684   -0.834
17135 H1 37.029 43.566 -21.137 ho 3684 TIP3_3684    0.417
17136 H2 35.574 43.773 -20.636 ho 3684 TIP3_3684    0.417
17137 OH2 41.214 32.847 -35.234 oh 3685 TIP3_3685   -0.834
17138 H1 40.254 32.992 -34.839 ho 3685 TIP3_3685    0.417
17139 H2 40.905 32.392 -36.004 ho 3685 TIP3_3685    0.417
17140 OH2 44.254 46.282 -37.342 oh 3686 TIP3_3686   -0.834
17141 H1 44.919 45.761 -36.859 ho 3686 TIP3_3686    0.417
17142 H2 43.681 45.629 -37.676 ho 3686 TIP3_3686    0.417
17143 OH2 37.814 42.906 -32.617 oh 3687 TIP3_3687   -0.834
17144 H1 38.379 42.410 -33.312 ho 3687 TIP3_3687    0.417
17145 H2 36.963 42.994 -33.046 ho 3687 TIP3_3687    0.417
17146 OH2 35.929 39.750 -34.282 oh 3688 TIP3_3688   -0.834
17147 H1 35.050 39.541 -34.592 ho 3688 TIP3_3688    0.417
17148 H2 36.401 38.879 -34.283 ho 3688 TIP3_3688    0.417
17149 OH2 42.290 44.292 -37.641 oh 3689 TIP3_3689   -0.834
17150 H1 42.571 43.413 -37.928 ho 3689 TIP3_3689    0.417
17151 H2 42.248 44.245 -36.654 ho 3689 TIP3_3689    0.417
17152 OH2 28.403 29.687 -30.185 oh 3690 TIP3_3690   -0.834
17153 H1 28.109 30.272 -30.903 ho 3690 TIP3_3690    0.417
17154 H2 28.817 28.973 -30.673 ho 3690 TIP3_3690    0.417
17155 OH2 36.514 57.235 -23.257 oh 3691 TIP3_3691   -0.834
17156 H1 35.907 56.695 -23.750 ho 3691 TIP3_3691    0.417
17157 H2 37.387 56.824 -23.274 ho 3691 TIP3_3691    0.417
17158 OH2 43.189 29.582 -21.151 oh 3692 TIP3_3692   -0.834
17159 H1 42.592 29.772 -20.409 ho 3692 TIP3_3692    0.417
17160 H2 43.462 30.429 -21.482 ho 3692 TIP3_3692    0.417
17161 OH2 31.140 28.669 -36.296 oh 3693 TIP3_3693   -0.834
17162 H1 31.732 28.837 -37.051 ho 3693 TIP3_3693    0.417
17163 H2 31.807 28.408 -35.622 ho 3693 TIP3_3693    0.417
17164 OH2 48.400 33.392 -29.697 oh 3694 TIP3_3694   -0.834
17165 H1 49.178 32.826 -29.711 ho 3694 TIP3_3694    0.417
17166 H2 48.008 33.221 -28.782 ho 3694 TIP3_3694    0.417
17167 OH2 27.344 35.571 -37.376 oh 3695 TIP3_3695   -0.834
17168 H1 27.122 35.753 -36.447 ho 3695 TIP3_3695    0.417
17169 H2 27.947 34.791 -37.383 ho 3695 TIP3_3695    0.417
17170 OH2 45.993 41.537 -24.159 oh 3696 TIP3_3696   -0.834
17171 H1 45.642 40.637 -24.444 ho 3696 TIP3_3696    0.417
17172 H2 45.414 42.132 -24.691 ho 3696 TIP3_3696    0.417
17173 OH2 44.943 33.541 -38.909 oh 3697 TIP3_3697   -0.834
17174 H1 44.708 32.591 -38.731 ho 3697 TIP3_3697    0.417
17175 H2 44.137 34.033 -38.795 ho 3697 TIP3_3697    0.417
17176 OH2 46.664 36.800 -27.213 oh 3698 TIP3_3698   -0.834
17177 H1 46.444 37.524 -27.781 ho 3698 TIP3_3698    0.417
17178 H2 47.536 36.532 -27.528 ho 3698 TIP3_3698    0.417
17179 OH2 28.259 54.755 -29.522 oh 3699 TIP3_3699   -0.834
17180 H1 28.377 55.314 -30.277 ho 3699 TIP3_3699    0.417
17181 H2 27.498 54.224 -29.857 ho 3699 TIP3_3699    0.417
17182 OH2 44.987 44.074 -25.059 oh 3700 TIP3_3700   -0.834
17183 H1 44.169 44.348 -24.691 ho 3700 TIP3_3700    0.417
17184 H2 45.655 44.523 -24.533 ho 3700 TIP3_3700    0.417
17185 OH2 42.275 35.010 -21.303 oh 3701 TIP3_3701   -0.834
17186 H1 42.894 34.584 -21.906 ho 3701 TIP3_3701    0.417
17187 H2 41.492 34.472 -21.340 ho 3701 TIP3_3701    0.417
17188 OH2 49.148 29.469 -38.486 oh 3702 TIP3_3702   -0.834
17189 H1 48.319 28.941 -38.560 ho 3702 TIP3_3702    0.417
17190 H2 49.739 28.855 -38.019 ho 3702 TIP3_3702    0.417
17191 OH2 27.369 44.620 -29.162 oh 3703 TIP3_3703   -0.834
17192 H1 27.051 44.425 -28.299 ho 3703 TIP3_3703    0.417
17193 H2 28.347 44.717 -29.077 ho 3703 TIP3_3703    0.417
17194 OH2 40.117 41.342 -24.680 oh 3704 TIP3_3704   -0.834
17195 H1 39.190 41.658 -24.765 ho 3704 TIP3_3704    0.417
17196 H2 40.725 42.080 -25.050 ho 3704 TIP3_3704    0.417
17197 OH2 46.008 28.270 -24.827 oh 3705 TIP3_3705   -0.834
17198 H1 45.390 29.036 -24.916 ho 3705 TIP3_3705    0.417
17199 H2 46.768 28.592 -25.251 ho 3705 TIP3_3705    0.417
17200 OH2 27.750 33.844 -30.371 oh 3706 TIP3_3706   -0.834
17201 H1 27.110 33.290 -30.002 ho 3706 TIP3_3706    0.417
17202 H2 27.164 34.245 -31.038 ho 3706 TIP3_3706    0.417
17203 OH2 41.936 51.039 -36.049 oh 3707 TIP3_3707   -0.834
17204 H1 41.552 50.515 -35.384 ho 3707 TIP3_3707    0.417
17205 H2 42.731 50.524 -36.316 ho 3707 TIP3_3707    0.417
17206 OH2 44.819 26.185 -33.579 oh 3708 TIP3_3708   -0.834
17207 H1 45.354 26.643 -34.248 ho 3708 TIP3_3708    0.417
17208 H2 44.767 25.232 -33.901 ho 3708 TIP3_3708    0.417
17209 OH2 25.675 36.574 -29.048 oh 3709 TIP3_3709   -0.834
17210 H1 26.597 36.546 -29.426 ho 3709 TIP3_3709    0.417
17211 H2 25.265 37.150 -29.661 ho 3709 TIP3_3709    0.417
17212 OH2 40.811 40.289 -32.800 oh 3710 TIP3_3710   -0.834
17213 H1 40.614 39.969 -33.691 ho 3710 TIP3_3710    0.417
17214 H2 41.024 41.198 -33.013 ho 3710 TIP3_3710    0.417
17215 OH2 29.716 53.389 -39.042 oh 3711 TIP3_3711   -0.834
17216 H1 28.999 53.738 -38.510 ho 3711 TIP3_3711    0.417
17217 H2 29.567 52.411 -38.991 ho 3711 TIP3_3711    0.417
17218 OH2 27.509 28.505 -27.090 oh 3712 TIP3_3712   -0.834
17219 H1 27.114 29.138 -27.685 ho 3712 TIP3_3712    0.417
17220 H2 27.715 27.712 -27.617 ho 3712 TIP3_3712    0.417
17221 OH2 36.706 40.811 -23.171 oh 3713 TIP3_3713   -0.834
17222 H1 35.892 41.347 -23.410 ho 3713 TIP3_3713    0.417
17223 H2 37.344 41.466 -22.838 ho 3713 TIP3_3713    0.417
17224 OH2 34.813 50.619 -25.270 oh 3714 TIP3_3714   -0.834
17225 H1 35.656 50.876 -24.836 ho 3714 TIP3_3714    0.417
17226 H2 34.196 51.145 -24.725 ho 3714 TIP3_3714    0.417
17227 OH2 32.061 49.972 -37.457 oh 3715 TIP3_3715   -0.834
17228 H1 32.985 50.260 -37.563 ho 3715 TIP3_3715    0.417
17229 H2 32.151 49.003 -37.555 ho 3715 TIP3_3715    0.417
17230 OH2 26.312 38.577 -26.171 oh 3716 TIP3_3716   -0.834
17231 H1 26.594 38.350 -27.037 ho 3716 TIP3_3716    0.417
17232 H2 25.905 39.443 -26.366 ho 3716 TIP3_3716    0.417
17233 OH2 48.194 45.211 -29.587 oh 3717 TIP3_3717   -0.834
17234 H1 48.287 44.862 -28.660 ho 3717 TIP3_3717    0.417
17235 H2 48.903 45.869 -29.727 ho 3717 TIP3_3717    0.417
17236 OH2 44.338 34.844 -32.476 oh 3718 TIP3_3718   -0.834
17237 H1 44.536 34.211 -33.212 ho 3718 TIP3_3718    0.417
17238 H2 45.226 35.133 -32.171 ho 3718 TIP3_3718    0.417
17239 OH2 39.603 43.110 -36.787 oh 3719 TIP3_3719   -0.834
17240 H1 39.275 42.655 -36.037 ho 3719 TIP3_3719    0.417
17241 H2 38.842 43.606 -37.122 ho 3719 TIP3_3719    0.417
17242 OH2 40.727 51.799 -28.529 oh 3720 TIP3_3720   -0.834
17243 H1 41.447 51.161 -28.206 ho 3720 TIP3_3720    0.417
17244 H2 40.668 52.359 -27.784 ho 3720 TIP3_3720    0.417
17245 OH2 38.600 42.247 -30.002 oh 3721 TIP3_3721   -0.834
17246 H1 38.256 41.385 -29.893 ho 3721 TIP3_3721    0.417
17247 H2 38.616 42.337 -30.953 ho 3721 TIP3_3721    0.417
17248 OH2 40.581 53.901 -31.059 oh 3722 TIP3_3722   -0.834
17249 H1 40.875 54.699 -31.454 ho 3722 TIP3_3722    0.417
17250 H2 41.377 53.333 -31.092 ho 3722 TIP3_3722    0.417
17251 OH2 35.205 55.663 -31.399 oh 3723 TIP3_3723   -0.834
17252 H1 35.229 55.950 -30.452 ho 3723 TIP3_3723    0.417
17253 H2 35.944 55.051 -31.491 ho 3723 TIP3_3723    0.417
17254 OH2 28.800 56.154 -22.205 oh 3724 TIP3_3724   -0.834
17255 H1 28.576 56.376 -23.168 ho 3724 TIP3_3724    0.417
17256 H2 28.826 55.184 -22.177 ho 3724 TIP3_3724    0.417
17257 OH2 44.162 51.826 -26.278 oh 3725 TIP3_3725   -0.834
17258 H1 45.048 51.911 -26.581 ho 3725 TIP3_3725    0.417
17259 H2 44.172 51.129 -25.645 ho 3725 TIP3_3725    0.417
17260 OH2 29.098 52.516 -35.559 oh 3726 TIP3_3726   -0.834
17261 H1 28.869 51.827 -34.935 ho 3726 TIP3_3726    0.417
17262 H2 30.084 52.574 -35.407 ho 3726 TIP3_3726    0.417
17263 OH2 30.596 48.880 -21.238 oh 3727 TIP3_3727   -0.834
17264 H1 30.727 49.762 -20.815 ho 3727 TIP3_3727    0.417
17265 H2 31.504 48.604 -21.569 ho 3727 TIP3_3727    0.417
17266 OH2 41.508 34.578 -32.319 oh 3728 TIP3_3728   -0.834
17267 H1 41.244 34.038 -33.066 ho 3728 TIP3_3728    0.417
17268 H2 42.304 35.021 -32.484 ho 3728 TIP3_3728    0.417
17269 OH2 44.066 41.468 -33.203 oh 3729 TIP3_3729   -0.834
17270 H1 43.300 41.930 -32.811 ho 3729 TIP3_3729    0.417
17271 H2 43.744 41.292 -34.117 ho 3729 TIP3_3729    0.417
17272 OH2 33.823 35.581 -31.173 oh 3730 TIP3_3730   -0.834
17273 H1 33.183 35.753 -31.852 ho 3730 TIP3_3730    0.417
17274 H2 33.389 35.061 -30.466 ho 3730 TIP3_3730    0.417
17275 OH2 33.561 35.924 -23.119 oh 3731 TIP3_3731   -0.834
17276 H1 32.916 36.188 -23.798 ho 3731 TIP3_3731    0.417
17277 H2 33.309 35.008 -22.877 ho 3731 TIP3_3731    0.417
17278 OH2 38.039 35.511 -28.223 oh 3732 TIP3_3732   -0.834
17279 H1 38.825 35.589 -28.718 ho 3732 TIP3_3732    0.417
17280 H2 37.883 36.473 -28.084 ho 3732 TIP3_3732    0.417
17281 OH2 27.378 30.806 -23.747 oh 3733 TIP3_3733   -0.834
17282 H1 27.157 31.161 -22.901 ho 3733 TIP3_3733    0.417
17283 H2 28.301 31.032 -23.874 ho 3733 TIP3_3733    0.417
17284 OH2 33.900 32.310 -28.710 oh 3734 TIP3_3734   -0.834
17285 H1 33.739 31.706 -27.922 ho 3734 TIP3_3734    0.417
17286 H2 34.555 33.003 -28.469 ho 3734 TIP3_3734    0.417
17287 OH2 27.583 41.123 -27.954 oh 3735 TIP3_3735   -0.834
17288 H1 28.491 41.508 -27.941 ho 3735 TIP3_3735    0.417
17289 H2 27.312 41.312 -27.113 ho 3735 TIP3_3735    0.417
17290 OH2 48.742 40.709 -21.904 oh 3736 TIP3_3736   -0.834
17291 H1 49.551 41.106 -22.179 ho 3736 TIP3_3736    0.417
17292 H2 48.413 40.288 -22.769 ho 3736 TIP3_3736    0.417
17293 OH2 31.205 31.991 -21.558 oh 3737 TIP3_3737   -0.834
17294 H1 31.782 32.347 -20.848 ho 3737 TIP3_3737    0.417
17295 H2 30.309 32.062 -21.200 ho 3737 TIP3_3737    0.417
17296 OH2 38.867 29.624 -36.046 oh 3738 TIP3_3738   -0.834
17297 H1 39.067 29.641 -35.096 ho 3738 TIP3_3738    0.417
17298 H2 39.122 30.494 -36.352 ho 3738 TIP3_3738    0.417
17299 OH2 40.742 26.825 -30.226 oh 3739 TIP3_3739   -0.834
17300 H1 41.699 26.554 -30.271 ho 3739 TIP3_3739    0.417
17301 H2 40.249 26.174 -29.629 ho 3739 TIP3_3739    0.417
17302 OH2 37.997 43.576 -24.793 oh 3740 TIP3_3740   -0.834
17303 H1 37.617 44.193 -25.507 ho 3740 TIP3_3740    0.417
17304 H2 38.582 44.163 -24.263 ho 3740 TIP3_3740    0.417
17305 OH2 48.865 26.827 -35.336 oh 3741 TIP3_3741   -0.834
17306 H1 48.526 25.972 -35.556 ho 3741 TIP3_3741    0.417
17307 H2 49.483 26.657 -34.531 ho 3741 TIP3_3741    0.417
17308 OH2 25.823 48.668 -37.112 oh 3742 TIP3_3742   -0.834
17309 H1 26.636 48.316 -36.660 ho 3742 TIP3_3742    0.417
17310 H2 25.253 48.978 -36.360 ho 3742 TIP3_3742    0.417
17311 OH2 27.278 28.922 -38.800 oh 3743 TIP3_3743   -0.834
17312 H1 27.701 28.392 -39.440 ho 3743 TIP3_3743    0.417
17313 H2 26.556 28.406 -38.585 ho 3743 TIP3_3743    0.417
17314 OH2 40.158 40.218 -38.547 oh 3744 TIP3_3744   -0.834
17315 H1 40.286 41.123 -38.840 ho 3744 TIP3_3744    0.417
17316 H2 39.175 40.219 -38.413 ho 3744 TIP3_3744    0.417
17317 OH2 28.438 33.099 -39.684 oh 3745 TIP3_3745   -0.834
17318 H1 27.547 32.847 -39.423 ho 3745 TIP3_3745    0.417
17319 H2 28.889 32.775 -38.907 ho 3745 TIP3_3745    0.417
17320 OH2 32.830 44.751 -38.005 oh 3746 TIP3_3746   -0.834
17321 H1 32.257 44.870 -38.753 ho 3746 TIP3_3746    0.417
17322 H2 33.329 43.923 -38.115 ho 3746 TIP3_3746    0.417
17323 OH2 28.661 50.314 -34.330 oh 3747 TIP3_3747   -0.834
17324 H1 29.172 49.871 -35.004 ho 3747 TIP3_3747    0.417
17325 H2 29.048 50.053 -33.531 ho 3747 TIP3_3747    0.417
17326 OH2 37.254 44.676 -37.771 oh 3748 TIP3_3748   -0.834
17327 H1 37.678 45.538 -37.642 ho 3748 TIP3_3748    0.417
17328 H2 37.115 44.535 -38.750 ho 3748 TIP3_3748    0.417
17329 OH2 27.184 47.110 -30.500 oh 3749 TIP3_3749   -0.834
17330 H1 26.913 46.297 -30.002 ho 3749 TIP3_3749    0.417
17331 H2 26.389 47.233 -31.036 ho 3749 TIP3_3749    0.417
17332 OH2 37.336 39.905 -30.650 oh 3750 TIP3_3750   -0.834
17333 H1 36.849 40.588 -31.117 ho 3750 TIP3_3750    0.417
17334 H2 36.568 39.375 -30.230 ho 3750 TIP3_3750    0.417
17335 OH2 38.340 38.560 -23.523 oh 3751 TIP3_3751   -0.834
17336 H1 38.400 38.568 -24.458 ho 3751 TIP3_3751    0.417
17337 H2 37.852 39.406 -23.367 ho 3751 TIP3_3751    0.417
17338 OH2 49.035 36.437 -29.058 oh 3752 TIP3_3752   -0.834
17339 H1 49.407 37.347 -29.161 ho 3752 TIP3_3752    0.417
17340 H2 48.483 36.342 -29.848 ho 3752 TIP3_3752    0.417
17341 OH2 46.334 32.222 -23.130 oh 3753 TIP3_3753   -0.834
17342 H1 46.033 31.443 -22.561 ho 3753 TIP3_3753    0.417
17343 H2 47.137 32.483 -22.756 ho 3753 TIP3_3753    0.417
17344 OH2 48.294 41.714 -31.647 oh 3754 TIP3_3754   -0.834
17345 H1 48.759 42.475 -31.329 ho 3754 TIP3_3754    0.417
17346 H2 49.011 41.330 -32.048 ho 3754 TIP3_3754    0.417
17347 OH2 35.926 30.365 -38.982 oh 3755 TIP3_3755   -0.834
17348 H1 36.138 29.769 -38.246 ho 3755 TIP3_3755    0.417
17349 H2 35.657 31.212 -38.507 ho 3755 TIP3_3755    0.417
17350 OH2 48.065 29.303 -26.374 oh 3756 TIP3_3756   -0.834
17351 H1 48.694 30.088 -26.437 ho 3756 TIP3_3756    0.417
17352 H2 48.274 28.881 -27.215 ho 3756 TIP3_3756    0.417
17353 OH2 45.584 54.083 -30.742 oh 3757 TIP3_3757   -0.834
17354 H1 45.206 54.670 -29.996 ho 3757 TIP3_3757    0.417
17355 H2 46.495 54.378 -30.905 ho 3757 TIP3_3757    0.417
17356 OH2 29.109 50.989 -29.851 oh 3758 TIP3_3758   -0.834
17357 H1 30.003 50.645 -29.650 ho 3758 TIP3_3758    0.417
17358 H2 29.317 51.768 -30.417 ho 3758 TIP3_3758    0.417
17359 OH2 34.197 29.375 -24.036 oh 3759 TIP3_3759   -0.834
17360 H1 34.163 28.590 -24.613 ho 3759 TIP3_3759    0.417
17361 H2 33.516 29.167 -23.396 ho 3759 TIP3_3759    0.417
17362 OH2 26.443 28.980 -21.373 oh 3760 TIP3_3760   -0.834
17363 H1 26.536 28.050 -21.753 ho 3760 TIP3_3760    0.417
17364 H2 25.589 29.282 -21.744 ho 3760 TIP3_3760    0.417
17365 OH2 40.427 38.899 -26.582 oh 3761 TIP3_3761   -0.834
17366 H1 40.598 39.703 -26.085 ho 3761 TIP3_3761    0.417
17367 H2 39.569 39.032 -27.006 ho 3761 TIP3_3761    0.417
17368 OH2 35.282 25.640 -37.947 oh 3762 TIP3_3762   -0.834
17369 H1 35.367 25.959 -36.984 ho 3762 TIP3_3762    0.417
17370 H2 34.743 26.323 -38.333 ho 3762 TIP3_3762    0.417
17371 OH2 48.112 51.630 -24.085 oh 3763 TIP3_3763   -0.834
17372 H1 47.633 51.888 -24.904 ho 3763 TIP3_3763    0.417
17373 H2 48.826 51.040 -24.348 ho 3763 TIP3_3763    0.417
17374 OH2 46.052 39.490 -35.708 oh 3764 TIP3_3764   -0.834
17375 H1 45.664 39.025 -34.991 ho 3764 TIP3_3764    0.417
17376 H2 46.791 40.006 -35.253 ho 3764 TIP3_3764    0.417
17377 OH2 27.520 55.670 -33.743 oh 3765 TIP3_3765   -0.834
17378 H1 27.672 54.751 -33.563 ho 3765 TIP3_3765    0.417
17379 H2 27.416 56.150 -32.855 ho 3765 TIP3_3765    0.417
17380 OH2 44.071 42.278 -38.619 oh 3766 TIP3_3766   -0.834
17381 H1 43.891 42.060 -39.564 ho 3766 TIP3_3766    0.417
17382 H2 44.885 41.781 -38.491 ho 3766 TIP3_3766    0.417
17383 OH2 41.114 45.023 -31.152 oh 3767 TIP3_3767   -0.834
17384 H1 41.232 45.963 -31.391 ho 3767 TIP3_3767    0.417
17385 H2 40.257 44.915 -30.700 ho 3767 TIP3_3767    0.417
17386 OH2 37.273 30.424 -29.596 oh 3768 TIP3_3768   -0.834
17387 H1 37.384 29.472 -29.790 ho 3768 TIP3_3768    0.417
17388 H2 38.153 30.714 -29.499 ho 3768 TIP3_3768    0.417
17389 OH2 27.421 28.775 -34.942 oh 3769 TIP3_3769   -0.834
17390 H1 27.684 27.934 -35.348 ho 3769 TIP3_3769    0.417
17391 H2 28.219 29.340 -34.952 ho 3769 TIP3_3769    0.417
17392 OH2 33.569 50.684 -27.789 oh 3770 TIP3_3770   -0.834
17393 H1 34.123 50.542 -26.985 ho 3770 TIP3_3770    0.417
17394 H2 33.805 51.595 -28.073 ho 3770 TIP3_3770    0.417
17395 OH2 29.618 33.125 -32.223 oh 3771 TIP3_3771   -0.834
17396 H1 30.405 32.919 -31.686 ho 3771 TIP3_3771    0.417
17397 H2 29.002 33.458 -31.578 ho 3771 TIP3_3771    0.417
17398 OH2 25.002 30.667 -25.409 oh 3772 TIP3_3772   -0.834
17399 H1 25.483 30.990 -26.170 ho 3772 TIP3_3772    0.417
17400 H2 25.608 30.781 -24.653 ho 3772 TIP3_3772    0.417
17401 OH2 38.134 29.535 -33.441 oh 3773 TIP3_3773   -0.834
17402 H1 37.434 28.932 -33.062 ho 3773 TIP3_3773    0.417
17403 H2 38.959 29.162 -33.035 ho 3773 TIP3_3773    0.417
17404 OH2 31.246 46.216 -26.436 oh 3774 TIP3_3774   -0.834
17405 H1 32.127 46.533 -26.206 ho 3774 TIP3_3774    0.417
17406 H2 30.802 47.075 -26.545 ho 3774 TIP3_3774    0.417
17407 OH2 38.639 41.098 -34.731 oh 3775 TIP3_3775   -0.834
17408 H1 39.099 40.394 -35.128 ho 3775 TIP3_3775    0.417
17409 H2 37.755 40.724 -34.657 ho 3775 TIP3_3775    0.417
17410 OH2 44.145 57.320 -37.951 oh 3776 TIP3_3776   -0.834
17411 H1 43.988 56.387 -38.018 ho 3776 TIP3_3776    0.417
17412 H2 43.252 57.669 -37.667 ho 3776 TIP3_3776    0.417
17413 OH2 34.064 55.446 -22.304 oh 3777 TIP3_3777   -0.834
17414 H1 34.896 55.192 -21.919 ho 3777 TIP3_3777    0.417
17415 H2 33.498 55.631 -21.509 ho 3777 TIP3_3777    0.417
17416 OH2 27.246 45.883 -35.005 oh 3778 TIP3_3778   -0.834
17417 H1 26.611 45.097 -35.115 ho 3778 TIP3_3778    0.417
17418 H2 28.079 45.473 -34.805 ho 3778 TIP3_3778    0.417
17419 OH2 29.598 53.408 -21.681 oh 3779 TIP3_3779   -0.834
17420 H1 29.669 53.317 -22.645 ho 3779 TIP3_3779    0.417
17421 H2 30.390 52.828 -21.358 ho 3779 TIP3_3779    0.417
17422 OH2 32.889 41.997 -25.640 oh 3780 TIP3_3780   -0.834
17423 H1 32.935 42.181 -26.642 ho 3780 TIP3_3780    0.417
17424 H2 33.602 42.562 -25.266 ho 3780 TIP3_3780    0.417
17425 OH2 40.204 48.340 -28.871 oh 3781 TIP3_3781   -0.834
17426 H1 39.567 48.666 -28.159 ho 3781 TIP3_3781    0.417
17427 H2 41.036 48.766 -28.618 ho 3781 TIP3_3781    0.417
17428 OH2 38.524 56.510 -35.250 oh 3782 TIP3_3782   -0.834
17429 H1 39.302 57.013 -35.570 ho 3782 TIP3_3782    0.417
17430 H2 37.790 56.810 -35.738 ho 3782 TIP3_3782    0.417
17431 OH2 49.149 43.888 -33.467 oh 3783 TIP3_3783   -0.834
17432 H1 49.021 44.166 -34.399 ho 3783 TIP3_3783    0.417
17433 H2 50.032 44.233 -33.278 ho 3783 TIP3_3783    0.417
17434 OH2 38.220 49.494 -26.908 oh 3784 TIP3_3784   -0.834
17435 H1 37.891 50.383 -26.713 ho 3784 TIP3_3784    0.417
17436 H2 38.056 48.918 -26.147 ho 3784 TIP3_3784    0.417
17437 OH2 45.028 32.080 -30.978 oh 3785 TIP3_3785   -0.834
17438 H1 45.675 32.715 -30.918 ho 3785 TIP3_3785    0.417
17439 H2 44.385 32.573 -31.473 ho 3785 TIP3_3785    0.417
17440 OH2 29.821 45.603 -28.761 oh 3786 TIP3_3786   -0.834
17441 H1 30.466 45.782 -28.037 ho 3786 TIP3_3786    0.417
17442 H2 30.384 45.914 -29.544 ho 3786 TIP3_3786    0.417
17443 OH2 43.063 39.437 -23.088 oh 3787 TIP3_3787   -0.834
17444 H1 43.739 38.888 -22.627 ho 3787 TIP3_3787    0.417
17445 H2 42.184 38.977 -23.042 ho 3787 TIP3_3787    0.417
17446 OH2 30.150 36.685 -28.006 oh 3788 TIP3_3788   -0.834
17447 H1 30.312 37.641 -27.980 ho 3788 TIP3_3788    0.417
17448 H2 30.614 36.405 -27.222 ho 3788 TIP3_3788    0.417
17449 OH2 25.802 50.084 -34.477 oh 3789 TIP3_3789   -0.834
17450 H1 25.579 51.065 -34.495 ho 3789 TIP3_3789    0.417
17451 H2 26.795 50.163 -34.555 ho 3789 TIP3_3789    0.417
17452 OH2 48.688 48.202 -35.897 oh 3790 TIP3_3790   -0.834
17453 H1 48.403 47.394 -36.449 ho 3790 TIP3_3790    0.417
17454 H2 48.793 48.867 -36.621 ho 3790 TIP3_3790    0.417
17455 OH2 29.269 47.752 -23.735 oh 3791 TIP3_3791   -0.834
17456 H1 29.149 48.680 -24.112 ho 3791 TIP3_3791    0.417
17457 H2 30.061 47.796 -23.224 ho 3791 TIP3_3791    0.417
17458 OH2 42.347 31.894 -27.290 oh 3792 TIP3_3792   -0.834
17459 H1 42.035 32.281 -28.069 ho 3792 TIP3_3792    0.417
17460 H2 42.688 31.047 -27.614 ho 3792 TIP3_3792    0.417
17461 OH2 31.687 49.853 -29.652 oh 3793 TIP3_3793   -0.834
17462 H1 32.588 49.883 -29.271 ho 3793 TIP3_3793    0.417
17463 H2 31.844 49.632 -30.581 ho 3793 TIP3_3793    0.417
17464 OH2 26.678 46.942 -38.965 oh 3794 TIP3_3794   -0.834
17465 H1 26.272 46.280 -38.408 ho 3794 TIP3_3794    0.417
17466 H2 26.498 47.809 -38.507 ho 3794 TIP3_3794    0.417
17467 OH2 25.995 53.021 -29.985 oh 3795 TIP3_3795   -0.834
17468 H1 25.013 52.981 -29.957 ho 3795 TIP3_3795    0.417
17469 H2 26.298 52.119 -29.737 ho 3795 TIP3_3795    0.417
17470 OH2 49.355 33.537 -37.874 oh 3796 TIP3_3796   -0.834
17471 H1 49.816 33.963 -38.577 ho 3796 TIP3_3796    0.417
17472 H2 49.086 32.636 -38.172 ho 3796 TIP3_3796    0.417
17473 OH2 44.574 45.666 -29.283 oh 3797 TIP3_3797   -0.834
17474 H1 45.069 44.902 -28.966 ho 3797 TIP3_3797    0.417
17475 H2 43.827 45.684 -28.672 ho 3797 TIP3_3797    0.417
17476 OH2 29.289 50.675 -38.525 oh 3798 TIP3_3798   -0.834
17477 H1 30.014 50.297 -38.091 ho 3798 TIP3_3798    0.417
17478 H2 28.628 50.027 -38.487 ho 3798 TIP3_3798    0.417
17479 OH2 43.906 35.685 -24.907 oh 3799 TIP3_3799   -0.834
17480 H1 43.520 36.195 -25.617 ho 3799 TIP3_3799    0.417
17481 H2 43.273 34.996 -24.728 ho 3799 TIP3_3799    0.417
17482 OH2 27.086 50.452 -21.806 oh 3800 TIP3_3800   -0.834
17483 H1 27.174 50.923 -22.606 ho 3800 TIP3_3800    0.417
17484 H2 26.272 50.869 -21.396 ho 3800 TIP3_3800    0.417
17485 OH2 30.526 33.369 -25.142 oh 3801 TIP3_3801   -0.834
17486 H1 29.950 33.218 -25.928 ho 3801 TIP3_3801    0.417
17487 H2 29.945 33.919 -24.637 ho 3801 TIP3_3801    0.417
17488 OH2 44.993 55.539 -28.466 oh 3802 TIP3_3802   -0.834
17489 H1 45.630 56.251 -28.418 ho 3802 TIP3_3802    0.417
17490 H2 45.051 55.203 -27.536 ho 3802 TIP3_3802    0.417
17491 OH2 41.298 47.765 -25.053 oh 3803 TIP3_3803   -0.834
17492 H1 41.094 47.020 -25.582 ho 3803 TIP3_3803    0.417
17493 H2 42.263 47.705 -24.973 ho 3803 TIP3_3803    0.417
17494 OH2 32.314 25.228 -30.848 oh 3804 TIP3_3804   -0.834
17495 H1 32.447 25.196 -31.843 ho 3804 TIP3_3804    0.417
17496 H2 33.219 25.336 -30.574 ho 3804 TIP3_3804    0.417
17497 OH2 34.495 39.416 -38.021 oh 3805 TIP3_3805   -0.834
17498 H1 35.354 39.203 -38.452 ho 3805 TIP3_3805    0.417
17499 H2 34.165 38.566 -37.901 ho 3805 TIP3_3805    0.417
17500 OH2 45.421 33.511 -25.429 oh 3806 TIP3_3806   -0.834
17501 H1 45.722 33.250 -24.559 ho 3806 TIP3_3806    0.417
17502 H2 44.915 34.285 -25.240 ho 3806 TIP3_3806    0.417
17503 OH2 47.023 52.254 -26.788 oh 3807 TIP3_3807   -0.834
17504 H1 47.008 52.284 -27.723 ho 3807 TIP3_3807    0.417
17505 H2 47.707 52.959 -26.570 ho 3807 TIP3_3807    0.417
17506 OH2 26.615 42.355 -25.645 oh 3808 TIP3_3808   -0.834
17507 H1 26.225 41.480 -25.580 ho 3808 TIP3_3808    0.417
17508 H2 25.859 42.984 -25.949 ho 3808 TIP3_3808    0.417
17509 OH2 32.334 42.973 -32.910 oh 3809 TIP3_3809   -0.834
17510 H1 32.571 43.390 -33.800 ho 3809 TIP3_3809    0.417
17511 H2 31.533 42.444 -33.115 ho 3809 TIP3_3809    0.417
17512 OH2 47.523 27.158 -38.502 oh 3810 TIP3_3810   -0.834
17513 H1 47.432 27.072 -39.454 ho 3810 TIP3_3810    0.417
17514 H2 47.118 26.321 -38.139 ho 3810 TIP3_3810    0.417
17515 OH2 48.796 39.318 -24.344 oh 3811 TIP3_3811   -0.834
17516 H1 49.661 39.033 -24.718 ho 3811 TIP3_3811    0.417
17517 H2 48.317 38.495 -24.204 ho 3811 TIP3_3811    0.417
17518 OH2 31.382 47.271 -37.681 oh 3812 TIP3_3812   -0.834
17519 H1 30.550 47.035 -38.153 ho 3812 TIP3_3812    0.417
17520 H2 31.859 46.472 -37.808 ho 3812 TIP3_3812    0.417
17521 OH2 36.518 27.141 -25.165 oh 3813 TIP3_3813   -0.834
17522 H1 36.356 27.769 -25.899 ho 3813 TIP3_3813    0.417
17523 H2 37.345 26.727 -25.417 ho 3813 TIP3_3813    0.417
17524 OH2 25.913 37.320 -39.063 oh 3814 TIP3_3814   -0.834
17525 H1 25.623 36.700 -39.732 ho 3814 TIP3_3814    0.417
17526 H2 26.290 36.784 -38.372 ho 3814 TIP3_3814    0.417
17527 OH2 48.999 39.341 -28.781 oh 3815 TIP3_3815   -0.834
17528 H1 48.278 39.589 -29.279 ho 3815 TIP3_3815    0.417
17529 H2 49.589 40.081 -28.951 ho 3815 TIP3_3815    0.417
17530 OH2 47.125 28.462 -29.547 oh 3816 TIP3_3816   -0.834
17531 H1 46.341 28.965 -29.153 ho 3816 TIP3_3816    0.417
17532 H2 47.548 29.227 -29.979 ho 3816 TIP3_3816    0.417
17533 OH2 35.704 31.721 -24.117 oh 3817 TIP3_3817   -0.834
17534 H1 35.901 31.912 -23.164 ho 3817 TIP3_3817    0.417
17535 H2 35.127 30.972 -24.002 ho 3817 TIP3_3817    0.417
17536 OH2 29.299 42.774 -32.831 oh 3818 TIP3_3818   -0.834
17537 H1 28.303 42.803 -32.678 ho 3818 TIP3_3818    0.417
17538 H2 29.533 43.755 -33.076 ho 3818 TIP3_3818    0.417
17539 OH2 49.227 41.498 -26.350 oh 3819 TIP3_3819   -0.834
17540 H1 49.060 40.791 -25.784 ho 3819 TIP3_3819    0.417
17541 H2 49.818 41.147 -27.021 ho 3819 TIP3_3819    0.417
17542 OH2 43.708 45.702 -23.058 oh 3820 TIP3_3820   -0.834
17543 H1 43.985 46.641 -22.839 ho 3820 TIP3_3820    0.417
17544 H2 43.995 45.185 -22.291 ho 3820 TIP3_3820    0.417
17545 OH2 44.460 30.591 -25.555 oh 3821 TIP3_3821   -0.834
17546 H1 45.196 31.250 -25.355 ho 3821 TIP3_3821    0.417
17547 H2 44.094 30.875 -26.419 ho 3821 TIP3_3821    0.417
17548 OH2 33.073 53.386 -24.115 oh 3822 TIP3_3822   -0.834
17549 H1 32.871 53.913 -24.903 ho 3822 TIP3_3822    0.417
17550 H2 33.208 54.108 -23.427 ho 3822 TIP3_3822    0.417
17551 OH2 48.131 43.985 -26.319 oh 3823 TIP3_3823   -0.834
17552 H1 47.287 43.784 -26.795 ho 3823 TIP3_3823    0.417
17553 H2 48.593 43.145 -26.348 ho 3823 TIP3_3823    0.417
17554 OH2 29.539 27.605 -31.705 oh 3824 TIP3_3824   -0.834
17555 H1 30.460 27.702 -31.877 ho 3824 TIP3_3824    0.417
17556 H2 29.434 26.616 -31.637 ho 3824 TIP3_3824    0.417
17557 OH2 35.028 49.028 -29.993 oh 3825 TIP3_3825   -0.834
17558 H1 35.075 48.132 -29.576 ho 3825 TIP3_3825    0.417
17559 H2 35.040 49.627 -29.215 ho 3825 TIP3_3825    0.417
17560 OH2 45.002 55.235 -25.227 oh 3826 TIP3_3826   -0.834
17561 H1 44.680 55.758 -24.422 ho 3826 TIP3_3826    0.417
17562 H2 45.498 54.580 -24.815 ho 3826 TIP3_3826    0.417
17563 OH2 38.102 54.392 -33.686 oh 3827 TIP3_3827   -0.834
17564 H1 38.204 55.236 -34.050 ho 3827 TIP3_3827    0.417
17565 H2 38.273 54.565 -32.739 ho 3827 TIP3_3827    0.417
17566 OH2 25.565 54.252 -38.417 oh 3828 TIP3_3828   -0.834
17567 H1 26.463 54.562 -38.264 ho 3828 TIP3_3828    0.417
17568 H2 25.586 53.335 -38.212 ho 3828 TIP3_3828    0.417
17569 OH2 36.794 50.052 -22.354 oh 3829 TIP3_3829   -0.834
17570 H1 37.667 49.804 -22.716 ho 3829 TIP3_3829    0.417
17571 H2 36.606 49.326 -21.718 ho 3829 TIP3_3829    0.417
17572 OH2 32.756 55.127 -26.148 oh 3830 TIP3_3830   -0.834
17573 H1 33.321 55.781 -26.711 ho 3830 TIP3_3830    0.417
17574 H2 31.864 55.405 -26.437 ho 3830 TIP3_3830    0.417
17575 OH2 31.439 30.144 -32.545 oh 3831 TIP3_3831   -0.834
17576 H1 32.310 29.836 -32.163 ho 3831 TIP3_3831    0.417
17577 H2 31.121 30.819 -31.884 ho 3831 TIP3_3831    0.417
17578 OH2 31.911 44.458 -22.665 oh 3832 TIP3_3832   -0.834
17579 H1 32.517 45.118 -23.043 ho 3832 TIP3_3832    0.417
17580 H2 31.315 44.136 -23.412 ho 3832 TIP3_3832    0.417
17581 OH2 33.378 47.836 -25.926 oh 3833 TIP3_3833   -0.834
17582 H1 34.127 48.085 -26.522 ho 3833 TIP3_3833    0.417
17583 H2 32.806 48.652 -25.888 ho 3833 TIP3_3833    0.417
17584 OH2 39.691 38.817 -30.950 oh 3834 TIP3_3834   -0.834
17585 H1 40.162 39.372 -31.615 ho 3834 TIP3_3834    0.417
17586 H2 38.821 39.250 -30.887 ho 3834 TIP3_3834    0.417
17587 OH2 29.107 53.282 -24.761 oh 3835 TIP3_3835   -0.834
17588 H1 29.977 53.023 -25.218 ho 3835 TIP3_3835    0.417
17589 H2 28.554 52.530 -24.982 ho 3835 TIP3_3835    0.417
17590 OH2 42.931 39.372 -28.406 oh 3836 TIP3_3836   -0.834
17591 H1 42.010 39.424 -28.713 ho 3836 TIP3_3836    0.417
17592 H2 42.926 39.956 -27.601 ho 3836 TIP3_3836    0.417
17593 OH2 42.812 30.771 -34.124 oh 3837 TIP3_3837   -0.834
17594 H1 42.220 31.316 -34.620 ho 3837 TIP3_3837    0.417
17595 H2 42.551 29.869 -34.331 ho 3837 TIP3_3837    0.417
17596 OH2 33.400 30.552 -26.443 oh 3838 TIP3_3838   -0.834
17597 H1 34.070 30.240 -25.815 ho 3838 TIP3_3838    0.417
17598 H2 32.739 30.945 -25.837 ho 3838 TIP3_3838    0.417
17599 OH2 38.457 45.491 -33.455 oh 3839 TIP3_3839   -0.834
17600 H1 38.544 44.713 -33.041 ho 3839 TIP3_3839    0.417
17601 H2 38.199 45.170 -34.399 ho 3839 TIP3_3839    0.417
17602 OH2 46.033 52.960 -22.407 oh 3840 TIP3_3840   -0.834
17603 H1 46.033 53.956 -22.379 ho 3840 TIP3_3840    0.417
17604 H2 46.925 52.777 -22.825 ho 3840 TIP3_3840    0.417
17605 OH2 30.196 44.304 -24.685 oh 3841 TIP3_3841   -0.834
17606 H1 30.227 45.213 -25.058 ho 3841 TIP3_3841    0.417
17607 H2 30.252 43.720 -25.431 ho 3841 TIP3_3841    0.417
17608 OH2 41.863 56.310 -32.657 oh 3842 TIP3_3842   -0.834
17609 H1 42.079 57.272 -32.729 ho 3842 TIP3_3842    0.417
17610 H2 42.711 55.861 -32.781 ho 3842 TIP3_3842    0.417
17611 OH2 46.371 42.885 -34.125 oh 3843 TIP3_3843   -0.834
17612 H1 45.731 42.190 -33.799 ho 3843 TIP3_3843    0.417
17613 H2 47.157 42.771 -33.621 ho 3843 TIP3_3843    0.417
17614 OH2 30.356 30.388 -23.954 oh 3844 TIP3_3844   -0.834
17615 H1 30.884 31.064 -23.539 ho 3844 TIP3_3844    0.417
17616 H2 30.592 29.622 -23.463 ho 3844 TIP3_3844    0.417
17617 OH2 41.689 51.229 -31.711 oh 3845 TIP3_3845   -0.834
17618 H1 42.192 50.791 -31.000 ho 3845 TIP3_3845    0.417
17619 H2 41.002 51.674 -31.148 ho 3845 TIP3_3845    0.417
17620 OH2 43.395 40.466 -25.785 oh 3846 TIP3_3846   -0.834
17621 H1 44.249 39.988 -25.934 ho 3846 TIP3_3846    0.417
17622 H2 43.043 40.100 -24.975 ho 3846 TIP3_3846    0.417
17623 OH2 35.129 42.485 -33.450 oh 3847 TIP3_3847   -0.834
17624 H1 34.231 42.467 -33.080 ho 3847 TIP3_3847    0.417
17625 H2 35.108 41.702 -34.015 ho 3847 TIP3_3847    0.417
17626 OH2 34.784 43.060 -23.561 oh 3848 TIP3_3848   -0.834
17627 H1 35.576 43.166 -24.078 ho 3848 TIP3_3848    0.417
17628 H2 34.941 43.584 -22.766 ho 3848 TIP3_3848    0.417
17629 OH2 28.844 56.380 -25.086 oh 3849 TIP3_3849   -0.834
17630 H1 29.513 56.715 -25.699 ho 3849 TIP3_3849    0.417
17631 H2 28.982 55.438 -25.108 ho 3849 TIP3_3849    0.417
17632 OH2 30.488 39.255 -26.788 oh 3850 TIP3_3850   -0.834
17633 H1 31.279 39.126 -26.291 ho 3850 TIP3_3850    0.417
17634 H2 29.864 38.991 -26.122 ho 3850 TIP3_3850    0.417
17635 OH2 44.108 56.667 -22.919 oh 3851 TIP3_3851   -0.834
17636 H1 43.604 56.241 -22.230 ho 3851 TIP3_3851    0.417
17637 H2 44.620 57.420 -22.436 ho 3851 TIP3_3851    0.417
17638 OH2 36.763 44.614 -30.042 oh 3852 TIP3_3852   -0.834
17639 H1 37.279 45.405 -30.134 ho 3852 TIP3_3852    0.417
17640 H2 37.435 43.905 -30.099 ho 3852 TIP3_3852    0.417
17641 OH2 27.179 38.464 -32.823 oh 3853 TIP3_3853   -0.834
17642 H1 27.719 39.061 -32.263 ho 3853 TIP3_3853    0.417
17643 H2 26.640 38.021 -32.157 ho 3853 TIP3_3853    0.417
17644 OH2 47.567 25.760 -24.911 oh 3854 TIP3_3854   -0.834
17645 H1 48.323 25.895 -24.332 ho 3854 TIP3_3854    0.417
17646 H2 47.175 26.702 -24.915 ho 3854 TIP3_3854    0.417
17647 OH2 34.131 26.075 -24.159 oh 3855 TIP3_3855   -0.834
17648 H1 34.948 26.463 -24.588 ho 3855 TIP3_3855    0.417
17649 H2 34.113 25.161 -24.536 ho 3855 TIP3_3855    0.417
17650 OH2 41.691 42.916 -33.241 oh 3856 TIP3_3856   -0.834
17651 H1 41.406 43.553 -33.908 ho 3856 TIP3_3856    0.417
17652 H2 41.815 43.526 -32.418 ho 3856 TIP3_3856    0.417
17653 OH2 39.403 32.815 -24.788 oh 3857 TIP3_3857   -0.834
17654 H1 38.532 33.206 -25.089 ho 3857 TIP3_3857    0.417
17655 H2 39.885 32.681 -25.627 ho 3857 TIP3_3857    0.417
17656 OH2 35.050 30.605 -34.242 oh 3858 TIP3_3858   -0.834
17657 H1 35.155 31.554 -34.444 ho 3858 TIP3_3858    0.417
17658 H2 35.797 30.389 -33.691 ho 3858 TIP3_3858    0.417
17659 OH2 34.935 37.876 -29.809 oh 3859 TIP3_3859   -0.834
17660 H1 34.709 37.098 -30.366 ho 3859 TIP3_3859    0.417
17661 H2 34.472 37.766 -28.982 ho 3859 TIP3_3859    0.417
17662 OH2 40.347 55.170 -27.971 oh 3860 TIP3_3860   -0.834
17663 H1 40.735 54.648 -28.701 ho 3860 TIP3_3860    0.417
17664 H2 41.082 55.398 -27.418 ho 3860 TIP3_3860    0.417
17665 OH2 44.917 51.551 -30.960 oh 3861 TIP3_3861   -0.834
17666 H1 45.120 51.190 -31.860 ho 3861 TIP3_3861    0.417
17667 H2 44.806 52.508 -31.129 ho 3861 TIP3_3861    0.417
17668 OH2 29.654 30.717 -34.977 oh 3862 TIP3_3862   -0.834
17669 H1 30.059 30.126 -35.605 ho 3862 TIP3_3862    0.417
17670 H2 30.409 30.785 -34.366 ho 3862 TIP3_3862    0.417
17671 OH2 26.899 36.624 -22.107 oh 3863 TIP3_3863   -0.834
17672 H1 26.139 36.678 -22.695 ho 3863 TIP3_3863    0.417
17673 H2 27.258 37.535 -22.145 ho 3863 TIP3_3863    0.417
17674 OH2 31.800 41.659 -22.816 oh 3864 TIP3_3864   -0.834
17675 H1 32.143 41.649 -23.673 ho 3864 TIP3_3864    0.417
17676 H2 32.109 42.502 -22.432 ho 3864 TIP3_3864    0.417
17677 OH2 38.410 38.796 -36.794 oh 3865 TIP3_3865   -0.834
17678 H1 37.860 38.342 -36.048 ho 3865 TIP3_3865    0.417
17679 H2 39.378 38.624 -36.514 ho 3865 TIP3_3865    0.417
17680 OH2 47.691 54.073 -33.850 oh 3866 TIP3_3866   -0.834
17681 H1 48.249 53.638 -34.462 ho 3866 TIP3_3866    0.417
17682 H2 47.694 53.441 -33.081 ho 3866 TIP3_3866    0.417
17683 OH2 46.505 33.198 -33.855 oh 3867 TIP3_3867   -0.834
17684 H1 46.809 34.071 -33.681 ho 3867 TIP3_3867    0.417
17685 H2 46.328 33.249 -34.803 ho 3867 TIP3_3867    0.417
17686 OH2 33.457 56.011 -39.140 oh 3868 TIP3_3868   -0.834
17687 H1 33.244 56.664 -38.486 ho 3868 TIP3_3868    0.417
17688 H2 32.809 55.305 -38.933 ho 3868 TIP3_3868    0.417
17689 OH2 25.747 29.469 -29.421 oh 3869 TIP3_3869   -0.834
17690 H1 25.426 28.568 -29.661 ho 3869 TIP3_3869    0.417
17691 H2 26.505 29.585 -30.010 ho 3869 TIP3_3869    0.417
17692 OH2 43.311 48.380 -27.612 oh 3870 TIP3_3870   -0.834
17693 H1 43.050 47.472 -27.588 ho 3870 TIP3_3870    0.417
17694 H2 43.858 48.546 -26.833 ho 3870 TIP3_3870    0.417
17695 OH2 43.350 31.978 -22.385 oh 3871 TIP3_3871   -0.834
17696 H1 43.415 32.291 -23.298 ho 3871 TIP3_3871    0.417
17697 H2 42.398 32.159 -22.216 ho 3871 TIP3_3871    0.417
17698 OH2 26.133 32.080 -34.922 oh 3872 TIP3_3872   -0.834
17699 H1 26.201 32.102 -35.863 ho 3872 TIP3_3872    0.417
17700 H2 25.358 31.549 -34.698 ho 3872 TIP3_3872    0.417
17701 OH2 26.562 31.536 -27.761 oh 3873 TIP3_3873   -0.834
17702 H1 25.960 32.250 -27.951 ho 3873 TIP3_3873    0.417
17703 H2 26.197 30.827 -28.447 ho 3873 TIP3_3873    0.417
17704 OH2 38.912 36.040 -22.617 oh 3874 TIP3_3874   -0.834
17705 H1 38.913 35.932 -23.577 ho 3874 TIP3_3874    0.417
17706 H2 38.612 36.935 -22.482 ho 3874 TIP3_3874    0.417
17707 OH2 31.667 32.547 -30.354 oh 3875 TIP3_3875   -0.834
17708 H1 31.103 31.975 -29.704 ho 3875 TIP3_3875    0.417
17709 H2 32.558 32.292 -29.954 ho 3875 TIP3_3875    0.417
17710 OH2 33.943 44.607 -30.607 oh 3876 TIP3_3876   -0.834
17711 H1 34.890 44.666 -30.826 ho 3876 TIP3_3876    0.417
17712 H2 33.551 44.202 -31.414 ho 3876 TIP3_3876    0.417
17713 OH2 40.898 28.293 -38.352 oh 3877 TIP3_3877   -0.834
17714 H1 40.837 28.977 -37.641 ho 3877 TIP3_3877    0.417
17715 H2 40.065 27.796 -38.211 ho 3877 TIP3_3877    0.417
17716 OH2 40.732 53.840 -35.046 oh 3878 TIP3_3878   -0.834
17717 H1 39.792 54.023 -35.188 ho 3878 TIP3_3878    0.417
17718 H2 40.905 53.211 -35.757 ho 3878 TIP3_3878    0.417
17719 OH2 42.817 37.760 -32.578 oh 3879 TIP3_3879   -0.834
17720 H1 43.106 37.660 -31.612 ho 3879 TIP3_3879    0.417
17721 H2 42.160 38.483 -32.553 ho 3879 TIP3_3879    0.417
17722 OH2 31.013 41.085 -36.674 oh 3880 TIP3_3880   -0.834
17723 H1 31.016 41.035 -35.708 ho 3880 TIP3_3880    0.417
17724 H2 30.249 40.516 -36.954 ho 3880 TIP3_3880    0.417
17725 OH2 28.686 33.353 -36.599 oh 3881 TIP3_3881   -0.834
17726 H1 29.494 32.930 -36.916 ho 3881 TIP3_3881    0.417
17727 H2 28.041 32.727 -36.803 ho 3881 TIP3_3881    0.417
17728 OH2 36.444 54.458 -24.532 oh 3882 TIP3_3882   -0.834
17729 H1 36.689 54.004 -23.728 ho 3882 TIP3_3882    0.417
17730 H2 35.514 54.271 -24.551 ho 3882 TIP3_3882    0.417
17731 OH2 31.319 56.624 -29.894 oh 3883 TIP3_3883   -0.834
17732 H1 32.087 56.877 -30.459 ho 3883 TIP3_3883    0.417
17733 H2 30.764 57.421 -30.039 ho 3883 TIP3_3883    0.417
17734 OH2 45.255 50.983 -36.871 oh 3884 TIP3_3884   -0.834
17735 H1 45.472 51.411 -36.046 ho 3884 TIP3_3884    0.417
17736 H2 44.868 50.098 -36.674 ho 3884 TIP3_3884    0.417
17737 OH2 48.323 54.785 -30.197 oh 3885 TIP3_3885   -0.834
17738 H1 49.151 55.268 -30.381 ho 3885 TIP3_3885    0.417
17739 H2 48.301 54.193 -30.864 ho 3885 TIP3_3885    0.417
17740 OH2 25.688 27.781 -32.886 oh 3886 TIP3_3886   -0.834
17741 H1 26.488 28.190 -33.297 ho 3886 TIP3_3886    0.417
17742 H2 25.053 28.429 -33.070 ho 3886 TIP3_3886    0.417
17743 OH2 47.872 43.441 -23.212 oh 3887 TIP3_3887   -0.834
17744 H1 47.201 42.864 -23.621 ho 3887 TIP3_3887    0.417
17745 H2 47.335 43.981 -22.575 ho 3887 TIP3_3887    0.417
17746 OH2 26.307 50.327 -29.867 oh 3888 TIP3_3888   -0.834
17747 H1 27.252 50.463 -29.923 ho 3888 TIP3_3888    0.417
17748 H2 26.122 49.555 -30.528 ho 3888 TIP3_3888    0.417
17749 OH2 36.780 38.509 -39.017 oh 3889 TIP3_3889   -0.834
17750 H1 37.311 38.422 -38.206 ho 3889 TIP3_3889    0.417
17751 H2 37.379 38.816 -39.700 ho 3889 TIP3_3889    0.417
17752 OH2 33.559 28.515 -28.465 oh 3890 TIP3_3890   -0.834
17753 H1 33.435 29.298 -27.845 ho 3890 TIP3_3890    0.417
17754 H2 32.955 27.899 -28.048 ho 3890 TIP3_3890    0.417
17755 OH2 45.606 38.952 -25.389 oh 3891 TIP3_3891   -0.834
17756 H1 45.573 38.545 -24.500 ho 3891 TIP3_3891    0.417
17757 H2 45.964 38.173 -25.957 ho 3891 TIP3_3891    0.417
17758 OH2 43.479 28.089 -38.622 oh 3892 TIP3_3892   -0.834
17759 H1 42.536 28.208 -38.426 ho 3892 TIP3_3892    0.417
17760 H2 43.602 27.140 -38.803 ho 3892 TIP3_3892    0.417
17761 OH2 27.013 50.789 -25.125 oh 3893 TIP3_3893   -0.834
17762 H1 26.078 50.523 -24.994 ho 3893 TIP3_3893    0.417
17763 H2 27.118 51.044 -26.077 ho 3893 TIP3_3893    0.417
17764 OH2 36.316 27.273 -32.044 oh 3894 TIP3_3894   -0.834
17765 H1 36.391 26.358 -31.849 ho 3894 TIP3_3894    0.417
17766 H2 35.423 27.479 -31.819 ho 3894 TIP3_3894    0.417
17767 OH2 32.834 39.408 -32.473 oh 3895 TIP3_3895   -0.834
17768 H1 32.105 39.717 -33.007 ho 3895 TIP3_3895    0.417
17769 H2 33.194 38.714 -33.074 ho 3895 TIP3_3895    0.417
17770 OH2 34.220 38.904 -22.660 oh 3896 TIP3_3896   -0.834
17771 H1 35.062 39.198 -22.262 ho 3896 TIP3_3896    0.417
17772 H2 34.394 37.999 -22.898 ho 3896 TIP3_3896    0.417
17773 OH2 28.230 47.882 -28.264 oh 3897 TIP3_3897   -0.834
17774 H1 28.601 46.950 -28.330 ho 3897 TIP3_3897    0.417
17775 H2 27.861 47.992 -29.147 ho 3897 TIP3_3897    0.417
17776 OH2 38.612 42.680 -21.378 oh 3898 TIP3_3898   -0.834
17777 H1 38.744 42.414 -20.492 ho 3898 TIP3_3898    0.417
17778 H2 39.526 42.831 -21.653 ho 3898 TIP3_3898    0.417
17779 OH2 38.380 54.030 -37.190 oh 3899 TIP3_3899   -0.834
17780 H1 37.670 54.133 -36.514 ho 3899 TIP3_3899    0.417
17781 H2 38.194 54.795 -37.817 ho 3899 TIP3_3899    0.417
17782 OH2 44.393 30.759 -38.315 oh 3900 TIP3_3900   -0.834
17783 H1 44.002 29.888 -38.282 ho 3900 TIP3_3900    0.417
17784 H2 44.316 31.082 -37.414 ho 3900 TIP3_3900    0.417
17785 OH2 40.989 44.751 -35.138 oh 3901 TIP3_3901   -0.834
17786 H1 40.952 45.632 -35.540 ho 3901 TIP3_3901    0.417
17787 H2 40.557 44.210 -35.812 ho 3901 TIP3_3901    0.417
17788 OH2 47.635 46.010 -37.098 oh 3902 TIP3_3902   -0.834
17789 H1 47.191 46.343 -37.926 ho 3902 TIP3_3902    0.417
17790 H2 46.968 45.900 -36.447 ho 3902 TIP3_3902    0.417
17791 OH2 41.328 26.151 -34.215 oh 3903 TIP3_3903   -0.834
17792 H1 42.092 25.539 -34.122 ho 3903 TIP3_3903    0.417
17793 H2 40.596 25.635 -33.851 ho 3903 TIP3_3903    0.417
17794 OH2 38.755 50.794 -30.480 oh 3904 TIP3_3904   -0.834
17795 H1 37.826 50.669 -30.233 ho 3904 TIP3_3904    0.417
17796 H2 39.148 50.751 -29.626 ho 3904 TIP3_3904    0.417
17797 OH2 41.037 55.640 -38.572 oh 3905 TIP3_3905   -0.834
17798 H1 41.257 54.742 -38.476 ho 3905 TIP3_3905    0.417
17799 H2 40.891 55.862 -37.613 ho 3905 TIP3_3905    0.417
17800 OH2 46.701 41.204 -28.187 oh 3906 TIP3_3906   -0.834
17801 H1 46.240 40.278 -28.322 ho 3906 TIP3_3906    0.417
17802 H2 47.146 40.993 -27.398 ho 3906 TIP3_3906    0.417
17803 OH2 28.119 35.325 -26.842 oh 3907 TIP3_3907   -0.834
17804 H1 28.598 35.900 -27.488 ho 3907 TIP3_3907    0.417
17805 H2 28.440 34.430 -27.038 ho 3907 TIP3_3907    0.417
17806 OH2 43.441 41.134 -36.160 oh 3908 TIP3_3908   -0.834
17807 H1 43.610 41.488 -37.032 ho 3908 TIP3_3908    0.417
17808 H2 44.113 40.407 -36.039 ho 3908 TIP3_3908    0.417
17809 OH2 33.876 53.437 -34.421 oh 3909 TIP3_3909   -0.834
17810 H1 34.227 52.577 -34.642 ho 3909 TIP3_3909    0.417
17811 H2 33.790 53.398 -33.467 ho 3909 TIP3_3909    0.417
17812 OH2 49.111 47.000 -33.574 oh 3910 TIP3_3910   -0.834
17813 H1 48.832 47.636 -32.908 ho 3910 TIP3_3910    0.417
17814 H2 48.879 47.428 -34.467 ho 3910 TIP3_3910    0.417
17815 OH2 37.371 54.653 -28.110 oh 3911 TIP3_3911   -0.834
17816 H1 38.310 54.891 -28.015 ho 3911 TIP3_3911    0.417
17817 H2 36.978 55.381 -27.593 ho 3911 TIP3_3911    0.417
17818 OH2 42.254 53.667 -25.944 oh 3912 TIP3_3912   -0.834
17819 H1 42.862 54.322 -25.840 ho 3912 TIP3_3912    0.417
17820 H2 42.777 52.880 -26.124 ho 3912 TIP3_3912    0.417
17821 OH2 45.597 39.632 -38.938 oh 3913 TIP3_3913   -0.834
17822 H1 46.521 39.797 -38.586 ho 3913 TIP3_3913    0.417
17823 H2 45.147 39.090 -38.280 ho 3913 TIP3_3913    0.417
17824 OH2 46.720 45.988 -31.947 oh 3914 TIP3_3914   -0.834
17825 H1 47.147 45.491 -31.220 ho 3914 TIP3_3914    0.417
17826 H2 47.486 46.373 -32.378 ho 3914 TIP3_3914    0.417
17827 OH2 36.177 34.610 -32.072 oh 3915 TIP3_3915   -0.834
17828 H1 35.443 35.172 -31.947 ho 3915 TIP3_3915    0.417
17829 H2 35.866 33.788 -31.702 ho 3915 TIP3_3915    0.417
17830 OH2 33.883 46.581 -34.240 oh 3916 TIP3_3916   -0.834
17831 H1 33.705 47.232 -33.554 ho 3916 TIP3_3916    0.417
17832 H2 34.357 47.008 -34.923 ho 3916 TIP3_3916    0.417
17833 OH2 28.320 26.439 -36.307 oh 3917 TIP3_3917   -0.834
17834 H1 28.018 26.263 -37.205 ho 3917 TIP3_3917    0.417
17835 H2 29.218 26.737 -36.467 ho 3917 TIP3_3917    0.417
17836 OH2 27.083 53.332 -32.674 oh 3918 TIP3_3918   -0.834
17837 H1 26.558 53.514 -31.885 ho 3918 TIP3_3918    0.417
17838 H2 26.496 52.737 -33.189 ho 3918 TIP3_3918    0.417
17839 OH2 32.694 33.338 -23.313 oh 3919 TIP3_3919   -0.834
17840 H1 32.323 33.081 -22.492 ho 3919 TIP3_3919    0.417
17841 H2 31.991 33.476 -23.928 ho 3919 TIP3_3919    0.417
17842 OH2 45.306 51.975 -33.863 oh 3920 TIP3_3920   -0.834
17843 H1 44.429 52.310 -33.743 ho 3920 TIP3_3920    0.417
17844 H2 45.838 52.794 -33.981 ho 3920 TIP3_3920    0.417
@<TRIPOS>BOND
1 2 1 1 
2 3 1 2 
3 4 2 2 
4 5 3 1 
5 5 39 1 
6 6 3 1 
7 6 37 1 
8 6 38 1 
9 7 4 1 
10 8 5 2 
11 8 4 1 
12 8 36 1 
13 9 6 1 
14 9 42 1 
15 10 7 2 
16 11 13 2 
17 11 9 1 
18 12 11 1 
19 12 35 1 
20 12 14 1 
21 12 15 1 
22 14 64 1 
23 15 33 1 
24 15 34 1 
25 16 14 1 
26 16 31 1 
27 16 32 1 
28 17 16 1 
29 17 15 1 
30 18 17 1 
31 19 17 1 
32 20 18 1 
33 20 29 1 
34 20 30 1 
35 21 19 2 
36 22 20 1 
37 22 23 1 
38 22 27 1 
39 22 28 1 
40 24 23 1 
41 25 23 1 
42 26 23 1 
43 40 2 1 
44 41 1 1 
45 43 82 1 
46 43 83 1 
47 44 43 1 
48 45 43 1 
49 45 80 1 
50 45 81 1 
51 46 44 1 
52 47 45 1 
53 47 77 1 
54 47 78 1 
55 47 79 1 
56 48 46 1 
57 48 75 1 
58 48 76 1 
59 49 46 1 
60 49 73 1 
61 49 74 1 
62 50 46 1 
63 50 53 2 
64 51 48 1 
65 51 54 1 
66 51 72 1 
67 52 49 1 
68 52 51 1 
69 55 54 2 
70 56 54 1 
71 56 84 1 
72 57 56 1 
73 57 70 1 
74 57 71 1 
75 58 57 1 
76 59 58 2 
77 59 69 1 
78 60 58 1 
79 60 68 1 
80 61 59 1 
81 61 63 2 
82 61 67 1 
83 62 60 2 
84 62 63 1 
85 62 66 1 
86 64 63 1 
87 65 64 2 
88 85 210 1 
89 86 85 1 
90 87 86 1 
91 87 98 1 
92 87 99 1 
93 88 86 1 
94 88 96 1 
95 88 97 1 
96 89 86 1 
97 89 208 1 
98 90 87 1 
99 90 93 1 
100 90 95 1 
101 91 90 1 
102 91 88 1 
103 92 89 2 
104 94 93 2 
105 100 112 1 
106 100 113 1 
107 101 100 1 
108 101 103 1 
109 101 111 1 
110 101 104 1 
111 102 100 1 
112 102 105 1 
113 102 106 1 
114 102 110 1 
115 105 103 1 
116 106 133 1 
117 106 114 1 
118 107 104 2 
119 108 105 1 
120 109 105 1 
121 115 123 1 
122 115 124 1 
123 116 115 1 
124 117 116 1 
125 118 117 1 
126 119 117 1 
127 120 117 1 
128 121 116 1 
129 122 116 1 
130 125 138 1 
131 125 139 1 
132 126 125 1 
133 127 125 1 
134 128 126 1 
135 128 136 1 
136 128 137 1 
137 129 126 1 
138 129 190 1 
139 130 126 1 
140 130 183 1 
141 131 128 1 
142 131 127 1 
143 131 133 1 
144 131 135 1 
145 132 130 2 
146 134 133 2 
147 141 143 1 
148 141 140 1 
149 141 145 1 
150 141 144 1 
151 142 140 2 
152 143 153 1 
153 143 154 1 
154 146 143 1 
155 147 144 1 
156 147 146 1 
157 148 146 1 
158 149 148 2 
159 150 146 1 
160 151 144 1 
161 152 144 1 
162 155 232 1 
163 156 155 1 
164 156 170 1 
165 157 155 1 
166 157 168 1 
167 157 169 1 
168 158 156 1 
169 158 166 1 
170 158 167 1 
171 159 156 1 
172 159 231 1 
173 160 157 1 
174 160 158 1 
175 160 163 1 
176 161 159 2 
177 162 160 1 
178 162 164 1 
179 165 163 2 
180 171 178 1 
181 171 179 1 
182 171 180 1 
183 172 171 1 
184 172 173 1 
185 172 176 1 
186 172 177 1 
187 173 206 1 
188 174 173 1 
189 175 173 1 
190 181 183 1 
191 181 195 1 
192 181 196 1 
193 182 181 1 
194 182 184 1 
195 182 185 1 
196 182 186 1 
197 184 193 1 
198 184 194 1 
199 187 184 1 
200 187 183 1 
201 188 185 1 
202 189 186 2 
203 190 187 1 
204 191 190 2 
205 192 187 1 
206 198 197 1 
207 199 198 2 
208 200 197 1 
209 201 197 1 
210 202 203 1 
211 202 204 1 
212 202 205 1 
213 202 206 1 
214 203 215 1 
215 203 216 1 
216 204 213 1 
217 204 214 1 
218 207 203 1 
219 208 207 1 
220 208 204 1 
221 209 205 2 
222 210 207 1 
223 211 210 2 
224 212 207 1 
225 217 225 1 
226 217 226 1 
227 218 217 1 
228 218 223 1 
229 218 224 1 
230 219 218 1 
231 220 219 1 
232 221 219 1 
233 222 219 1 
234 227 240 1 
235 227 241 1 
236 228 227 1 
237 229 227 1 
238 229 233 1 
239 230 228 1 
240 230 233 1 
241 230 238 1 
242 230 239 1 
243 231 228 1 
244 232 228 1 
245 232 234 2 
246 235 233 1 
247 236 235 2 
248 237 233 1 
249 243 242 1 
250 244 242 2 
251 245 243 1 
252 245 255 1 
253 245 256 1 
254 246 243 1 
255 246 253 1 
256 246 254 1 
257 247 243 1 
258 247 561 1 
259 247 470 1 
260 248 245 1 
261 249 140 1 
262 249 246 1 
263 249 248 1 
264 250 145 1 
265 250 248 1 
266 251 250 2 
267 252 248 1 
268 257 264 1 
269 257 265 1 
270 257 266 1 
271 258 257 1 
272 258 263 1 
273 259 258 1 
274 259 312 1 
275 260 259 1 
276 261 259 1 
277 262 258 1 
278 267 527 1 
279 268 267 1 
280 268 281 1 
281 269 267 2 
282 270 268 1 
283 271 268 1 
284 271 279 1 
285 271 280 1 
286 271 273 1 
287 272 270 1 
288 272 273 1 
289 272 277 1 
290 272 278 1 
291 274 197 1 
292 274 273 1 
293 274 394 1 
294 275 273 1 
295 275 396 1 
296 276 275 2 
297 282 148 1 
298 282 283 1 
299 284 283 1 
300 284 295 1 
301 284 296 1 
302 285 283 1 
303 285 293 1 
304 285 294 1 
305 286 147 1 
306 286 283 1 
307 287 284 1 
308 288 285 1 
309 288 287 1 
310 288 307 1 
311 289 286 2 
312 290 287 1 
313 290 312 1 
314 291 290 2 
315 292 287 1 
316 297 305 1 
317 297 306 1 
318 297 430 1 
319 298 297 1 
320 298 303 1 
321 298 304 1 
322 299 298 1 
323 300 299 1 
324 301 299 1 
325 302 299 1 
326 308 307 1 
327 309 307 2 
328 310 308 1 
329 310 313 1 
330 310 320 1 
331 310 321 1 
332 311 308 1 
333 311 314 1 
334 311 318 1 
335 311 319 1 
336 312 308 1 
337 314 313 1 
338 314 50 1 
339 315 313 1 
340 315 44 1 
341 316 315 2 
342 317 313 1 
343 322 323 1 
344 322 324 2 
345 322 325 1 
346 323 362 1 
347 325 363 1 
348 326 323 1 
349 326 7 1 
350 327 323 1 
351 327 360 1 
352 327 361 1 
353 328 325 1 
354 328 358 1 
355 328 359 1 
356 329 326 1 
357 329 356 1 
358 329 357 1 
359 330 329 1 
360 330 327 1 
361 330 333 1 
362 331 328 1 
363 331 334 2 
364 331 335 1 
365 332 330 1 
366 332 442 1 
367 332 336 1 
368 333 438 1 
369 334 355 1 
370 335 354 1 
371 336 352 1 
372 336 353 1 
373 337 333 2 
374 338 334 1 
375 338 351 1 
376 339 335 2 
377 339 350 1 
378 340 336 1 
379 340 348 1 
380 340 349 1 
381 341 343 1 
382 341 338 2 
383 341 339 1 
384 342 340 1 
385 342 345 1 
386 342 346 1 
387 342 347 1 
388 343 52 1 
389 344 343 2 
390 364 374 1 
391 364 375 1 
392 365 364 1 
393 365 377 1 
394 366 364 1 
395 366 373 1 
396 367 366 1 
397 368 430 1 
398 368 367 1 
399 369 367 1 
400 369 376 1 
401 369 431 1 
402 370 368 2 
403 371 367 1 
404 372 366 1 
405 378 19 1 
406 379 378 1 
407 379 392 1 
408 380 383 1 
409 380 378 1 
410 380 390 1 
411 380 391 1 
412 381 379 1 
413 381 388 1 
414 381 389 1 
415 381 383 1 
416 382 379 1 
417 382 18 1 
418 382 384 2 
419 385 383 1 
420 385 217 1 
421 385 93 1 
422 386 383 1 
423 386 91 1 
424 387 386 2 
425 394 393 2 
426 395 394 1 
427 395 408 1 
428 396 395 1 
429 397 395 1 
430 397 406 1 
431 397 407 1 
432 398 396 1 
433 398 404 1 
434 398 405 1 
435 399 397 1 
436 399 398 1 
437 400 104 1 
438 400 399 1 
439 401 103 1 
440 401 399 1 
441 401 403 2 
442 402 400 1 
443 409 420 1 
444 410 460 1 
445 410 409 1 
446 410 413 2 
447 411 409 1 
448 411 422 1 
449 411 461 1 
450 412 409 1 
451 412 414 1 
452 412 418 1 
453 412 419 1 
454 415 414 1 
455 415 494 1 
456 416 414 1 
457 417 414 1 
458 421 415 1 
459 423 505 1 
460 424 423 1 
461 424 437 1 
462 425 423 1 
463 425 435 1 
464 425 436 1 
465 426 424 1 
466 426 433 1 
467 426 434 1 
468 427 424 1 
469 427 506 1 
470 428 425 1 
471 428 426 1 
472 429 427 2 
473 430 428 1 
474 431 428 1 
475 432 431 2 
476 439 438 1 
477 439 452 1 
478 440 443 1 
479 440 438 1 
480 440 450 1 
481 440 451 1 
482 441 439 1 
483 441 448 1 
484 441 449 1 
485 441 443 1 
486 442 439 1 
487 442 444 2 
488 445 443 1 
489 445 486 1 
490 446 443 1 
491 446 480 1 
492 447 446 2 
493 453 205 1 
494 454 453 1 
495 454 467 1 
496 455 453 1 
497 455 465 1 
498 455 466 1 
499 456 454 1 
500 456 463 1 
501 456 464 1 
502 457 454 1 
503 457 206 1 
504 458 455 1 
505 458 456 1 
506 459 457 2 
507 460 458 1 
508 460 115 1 
509 461 458 1 
510 462 461 2 
511 468 475 1 
512 468 476 1 
513 468 477 1 
514 469 468 1 
515 469 473 1 
516 469 474 1 
517 470 469 1 
518 471 470 1 
519 472 470 1 
520 478 491 1 
521 478 492 1 
522 479 478 1 
523 479 483 1 
524 480 484 1 
525 480 478 1 
526 481 479 1 
527 481 484 1 
528 481 489 1 
529 481 490 1 
530 482 479 1 
531 482 502 1 
532 483 498 1 
533 485 483 2 
534 486 484 1 
535 487 486 2 
536 488 484 1 
537 493 231 1 
538 494 493 1 
539 495 494 2 
540 496 493 1 
541 497 493 1 
542 499 498 1 
543 499 512 1 
544 500 503 1 
545 500 498 1 
546 500 510 1 
547 500 511 1 
548 501 499 1 
549 501 508 1 
550 501 509 1 
551 501 503 1 
552 502 499 1 
553 502 504 2 
554 505 503 1 
555 506 503 1 
556 506 574 1 
557 507 505 2 
558 514 229 1 
559 514 513 1 
560 515 514 1 
561 516 514 1 
562 517 513 1 
563 518 513 1 
564 519 513 1 
565 520 163 1 
566 521 520 1 
567 521 533 1 
568 521 523 1 
569 521 524 1 
570 522 520 1 
571 522 532 1 
572 522 525 1 
573 522 531 1 
574 524 162 1 
575 525 523 1 
576 526 524 2 
577 527 525 1 
578 527 534 1 
579 528 525 1 
580 529 523 1 
581 530 523 1 
582 535 547 1 
583 535 548 1 
584 536 535 1 
585 536 546 1 
586 537 535 1 
587 537 186 1 
588 538 536 1 
589 538 544 1 
590 538 545 1 
591 539 235 1 
592 539 536 1 
593 539 549 1 
594 540 538 1 
595 540 537 1 
596 540 543 1 
597 541 540 1 
598 541 185 1 
599 542 541 2 
600 550 85 1 
601 550 558 1 
602 550 559 1 
603 551 550 1 
604 551 556 1 
605 551 557 1 
606 552 551 1 
607 552 553 1 
608 552 554 1 
609 552 555 1 
610 560 563 1 
611 560 571 1 
612 561 560 1 
613 561 564 2 
614 562 242 1 
615 562 560 1 
616 562 573 1 
617 565 563 1 
618 566 198 1 
619 566 565 1 
620 567 565 1 
621 568 565 1 
622 569 563 1 
623 570 563 1 
624 572 566 1 
625 575 574 1 
626 576 575 1 
627 577 576 1 
628 578 576 1 
629 579 576 1 
630 580 575 1 
631 581 575 1 
632 582 574 1 
633 583 574 1 
634 584 145 1 
635 584 593 1 
636 585 584 1 
637 586 585 1 
638 587 586 1 
639 588 586 1 
640 589 586 1 
641 590 585 1 
642 591 585 1 
643 592 584 1 
644 594 603 1 
645 595 482 1 
646 595 594 1 
647 596 594 1 
648 597 596 1 
649 598 596 1 
650 599 596 1 
651 600 595 1 
652 601 595 1 
653 602 594 1 
654 604 613 1 
655 605 445 1 
656 605 604 1 
657 606 604 1 
658 607 606 1 
659 608 606 1 
660 609 606 1 
661 610 605 1 
662 611 605 1 
663 612 604 1 
664 614 270 1 
665 615 614 1 
666 616 615 1 
667 617 615 1 
668 618 615 1 
669 619 614 1 
670 620 614 1 
671 621 623 1 
672 621 629 1 
673 621 630 1 
674 622 282 1 
675 622 621 1 
676 622 627 1 
677 622 628 1 
678 624 623 1 
679 625 623 1 
680 626 623 1 
681 631 129 1 
682 631 634 1 
683 631 635 1 
684 632 365 1 
685 632 631 1 
686 632 633 2 
687 636 127 1 
688 637 636 1 
689 638 637 1 
690 639 637 1 
691 640 637 1 
692 641 636 1 
693 642 636 1 
694 643 683 1 
695 644 643 1 
696 644 682 1 
697 645 643 2 
698 646 644 2 
699 647 645 1 
700 647 681 1 
701 648 645 1 
702 648 679 1 
703 648 680 1 
704 649 646 1 
705 649 968 1 
706 650 647 2 
707 650 646 1 
708 650 678 1 
709 651 648 1 
710 651 684 1 
711 651 653 1 
712 652 649 2 
713 654 653 1 
714 654 677 1 
715 655 653 2 
716 656 654 1 
717 656 706 1 
718 657 654 1 
719 657 675 1 
720 657 676 1 
721 658 656 1 
722 658 673 1 
723 658 674 1 
724 659 658 1 
725 659 657 1 
726 660 659 1 
727 660 1024 1 
728 661 659 1 
729 661 663 2 
730 661 1020 1 
731 662 660 1 
732 662 664 1 
733 662 671 1 
734 662 672 1 
735 665 664 1 
736 666 665 1 
737 667 665 1 
738 668 665 1 
739 669 664 1 
740 670 664 1 
741 685 724 1 
742 685 725 1 
743 686 685 1 
744 686 957 1 
745 687 685 1 
746 687 722 1 
747 687 723 1 
748 688 686 1 
749 689 687 1 
750 689 719 1 
751 689 720 1 
752 689 721 1 
753 690 688 1 
754 690 717 1 
755 690 718 1 
756 690 693 1 
757 691 688 1 
758 691 694 1 
759 691 715 1 
760 691 716 1 
761 692 688 1 
762 692 695 2 
763 692 956 1 
764 693 714 1 
765 694 693 1 
766 694 985 1 
767 696 693 1 
768 697 696 2 
769 698 696 1 
770 698 726 1 
771 699 698 1 
772 699 712 1 
773 699 713 1 
774 700 699 1 
775 701 700 2 
776 701 711 1 
777 701 703 1 
778 702 700 1 
779 702 704 2 
780 702 710 1 
781 705 703 2 
782 705 704 1 
783 706 705 1 
784 707 706 2 
785 708 704 1 
786 709 703 1 
787 727 852 1 
788 727 1192 1 
789 728 727 1 
790 729 728 1 
791 729 740 1 
792 729 741 1 
793 730 728 1 
794 730 738 1 
795 730 739 1 
796 730 733 1 
797 731 728 1 
798 731 734 2 
799 731 850 1 
800 732 729 1 
801 732 735 1 
802 732 737 1 
803 732 733 1 
804 733 1028 1 
805 735 1027 1 
806 736 735 2 
807 742 754 1 
808 742 755 1 
809 742 744 1 
810 742 743 1 
811 743 753 1 
812 745 743 1 
813 745 1043 1 
814 746 743 1 
815 746 1042 1 
816 747 744 1 
817 747 745 1 
818 748 744 1 
819 748 775 1 
820 748 756 1 
821 749 746 2 
822 750 747 1 
823 751 747 1 
824 752 744 1 
825 757 765 1 
826 757 766 1 
827 757 1102 1 
828 758 757 1 
829 758 764 1 
830 758 763 1 
831 759 758 1 
832 760 759 1 
833 761 759 1 
834 762 759 1 
835 767 780 1 
836 767 781 1 
837 768 767 1 
838 769 767 1 
839 769 773 1 
840 769 1278 1 
841 770 768 1 
842 770 778 1 
843 770 779 1 
844 770 773 1 
845 771 768 1 
846 771 832 1 
847 771 1273 1 
848 772 768 1 
849 772 825 1 
850 772 774 2 
851 775 773 1 
852 776 775 2 
853 777 773 1 
854 782 784 2 
855 782 783 1 
856 782 891 1 
857 785 783 1 
858 785 795 1 
859 785 796 1 
860 786 783 1 
861 786 794 1 
862 786 793 1 
863 787 783 1 
864 787 892 1 
865 787 1226 1 
866 788 785 1 
867 789 786 1 
868 789 788 1 
869 789 928 1 
870 790 788 1 
871 790 924 1 
872 791 790 2 
873 792 788 1 
874 797 874 1 
875 798 797 1 
876 798 812 1 
877 799 797 1 
878 799 810 1 
879 799 811 1 
880 800 798 1 
881 800 808 1 
882 800 809 1 
883 801 798 1 
884 801 803 2 
885 801 873 1 
886 802 799 1 
887 802 800 1 
888 802 805 1 
889 802 804 1 
890 804 1166 1 
891 805 1162 1 
892 806 804 1 
893 807 805 2 
894 814 813 1 
895 815 814 1 
896 815 848 1 
897 816 815 1 
898 817 815 1 
899 818 814 1 
900 819 814 1 
901 820 813 1 
902 821 813 1 
903 822 813 1 
904 823 837 1 
905 823 838 1 
906 824 823 1 
907 825 823 1 
908 826 824 1 
909 826 835 1 
910 826 836 1 
911 827 824 1 
912 827 1183 1 
913 828 824 1 
914 828 1179 1 
915 829 826 1 
916 829 825 1 
917 829 834 1 
918 830 827 1 
919 831 828 2 
920 832 829 1 
921 832 833 2 
922 839 843 1 
923 839 916 1 
924 840 839 1 
925 840 1208 1 
926 841 840 2 
927 842 839 1 
928 845 844 1 
929 845 857 1 
930 845 858 1 
931 846 844 1 
932 846 855 1 
933 846 856 1 
934 847 844 1 
935 847 1095 1 
936 848 844 1 
937 848 1099 1 
938 849 845 1 
939 849 854 1 
940 850 849 1 
941 850 846 1 
942 851 847 2 
943 852 849 1 
944 852 853 2 
945 859 867 1 
946 859 868 1 
947 859 1027 1 
948 860 859 1 
949 860 865 1 
950 860 866 1 
951 861 860 1 
952 861 863 1 
953 861 864 1 
954 862 861 1 
955 869 882 1 
956 869 883 1 
957 870 869 1 
958 870 874 1 
959 870 873 1 
960 871 869 1 
961 871 875 1 
962 871 1156 1 
963 872 870 1 
964 872 875 1 
965 872 880 1 
966 872 881 1 
967 873 1135 1 
968 876 874 2 
969 877 875 1 
970 877 1181 1 
971 878 877 2 
972 879 875 1 
973 884 1204 1 
974 885 884 1 
975 886 884 2 
976 887 885 1 
977 887 897 1 
978 887 898 1 
979 888 885 1 
980 888 895 1 
981 888 896 1 
982 889 885 1 
983 889 1203 1 
984 889 1112 1 
985 890 887 1 
986 890 894 1 
987 891 888 1 
988 891 890 1 
989 892 890 1 
990 892 893 2 
991 899 906 1 
992 899 907 1 
993 899 908 1 
994 900 899 1 
995 900 904 1 
996 900 905 1 
997 901 900 1 
998 901 954 1 
999 901 903 1 
1000 902 901 1 
1001 909 1169 1 
1002 910 909 1 
1003 910 923 1 
1004 910 913 1 
1005 911 909 2 
1006 912 910 1 
1007 912 1256 1 
1008 912 914 1 
1009 915 913 1 
1010 915 914 1 
1011 916 915 1 
1012 916 1036 1 
1013 917 915 1 
1014 917 1038 1 
1015 918 917 2 
1016 919 914 1 
1017 920 914 1 
1018 921 913 1 
1019 922 913 1 
1020 924 1264 1 
1021 925 924 1 
1022 926 925 1 
1023 926 937 1 
1024 926 938 1 
1025 927 925 1 
1026 927 935 1 
1027 927 936 1 
1028 928 925 1 
1029 929 926 1 
1030 929 934 1 
1031 930 927 1 
1032 930 929 1 
1033 930 949 1 
1034 931 928 2 
1035 932 929 1 
1036 932 954 1 
1037 932 933 2 
1038 939 947 1 
1039 939 948 1 
1040 939 1072 1 
1041 940 939 1 
1042 940 945 1 
1043 940 946 1 
1044 941 940 1 
1045 941 944 1 
1046 941 943 1 
1047 942 941 1 
1048 950 954 1 
1049 950 949 1 
1050 950 953 1 
1051 951 949 2 
1052 952 950 1 
1053 952 955 1 
1054 952 962 1 
1055 952 963 1 
1056 956 953 1 
1057 956 955 1 
1058 957 955 1 
1059 958 957 2 
1060 959 955 1 
1061 960 953 1 
1062 961 953 1 
1063 965 964 1 
1064 965 1004 1 
1065 966 964 2 
1066 967 964 1 
1067 967 1005 1 
1068 968 965 1 
1069 969 965 1 
1070 969 1002 1 
1071 969 1003 1 
1072 970 967 1 
1073 970 1000 1 
1074 970 1001 1 
1075 970 973 1 
1076 971 968 1 
1077 971 998 1 
1078 971 999 1 
1079 972 971 1 
1080 972 969 1 
1081 972 974 1 
1082 972 975 1 
1083 974 1084 1 
1084 975 1080 1 
1085 976 973 2 
1086 976 997 1 
1087 977 973 1 
1088 977 996 1 
1089 978 974 1 
1090 978 994 1 
1091 978 995 1 
1092 979 975 2 
1093 980 976 1 
1094 980 993 1 
1095 980 983 2 
1096 981 977 2 
1097 981 992 1 
1098 981 983 1 
1099 982 978 1 
1100 982 984 1 
1101 982 990 1 
1102 982 991 1 
1103 985 983 1 
1104 986 985 2 
1105 987 984 1 
1106 988 984 1 
1107 989 984 1 
1108 1006 1016 1 
1109 1006 1017 1 
1110 1007 1006 1 
1111 1007 1274 1 
1112 1007 1019 1 
1113 1008 1006 1 
1114 1008 1014 1 
1115 1008 1015 1 
1116 1009 1008 1 
1117 1009 1013 1 
1118 1010 1072 1 
1119 1010 1009 1 
1120 1011 1009 1 
1121 1011 1018 1 
1122 1011 1073 1 
1123 1012 1010 2 
1124 1021 1020 1 
1125 1021 1024 1 
1126 1021 1034 1 
1127 1021 1023 1 
1128 1022 1025 1 
1129 1022 1020 1 
1130 1022 1032 1 
1131 1022 1033 1 
1132 1025 1023 1 
1133 1026 1024 2 
1134 1027 1025 1 
1135 1028 1025 1 
1136 1029 1028 2 
1137 1030 1023 1 
1138 1031 1023 1 
1139 1036 1035 2 
1140 1037 1036 1 
1141 1037 1050 1 
1142 1038 1037 1 
1143 1039 1037 1 
1144 1039 1048 1 
1145 1039 1049 1 
1146 1040 1038 1 
1147 1040 1046 1 
1148 1040 1047 1 
1149 1041 1039 1 
1150 1041 1040 1 
1151 1041 1043 1 
1152 1042 1041 1 
1153 1042 1044 1 
1154 1045 1043 2 
1155 1051 1054 1 
1156 1051 1062 1 
1157 1051 1053 1 
1158 1052 1102 1 
1159 1052 1051 1 
1160 1052 1055 2 
1161 1053 1064 1 
1162 1053 1103 1 
1163 1056 1054 1 
1164 1057 1056 1 
1165 1057 1136 1 
1166 1057 1063 1 
1167 1058 1056 1 
1168 1059 1056 1 
1169 1060 1054 1 
1170 1061 1054 1 
1171 1065 1147 1 
1172 1066 1065 1 
1173 1066 1079 1 
1174 1067 1065 1 
1175 1067 1077 1 
1176 1067 1078 1 
1177 1068 1066 1 
1178 1068 1075 1 
1179 1068 1076 1 
1180 1069 1066 1 
1181 1069 1148 1 
1182 1070 1067 1 
1183 1070 1068 1 
1184 1070 1073 1 
1185 1071 1069 2 
1186 1072 1070 1 
1187 1074 1073 2 
1188 1081 1080 1 
1189 1081 1084 1 
1190 1081 1094 1 
1191 1081 1083 1 
1192 1082 1085 1 
1193 1082 1080 1 
1194 1082 1092 1 
1195 1082 1093 1 
1196 1085 1083 1 
1197 1086 1084 2 
1198 1087 1085 1 
1199 1087 1128 1 
1200 1087 1247 1 
1201 1088 1085 1 
1202 1088 1122 1 
1203 1089 1088 2 
1204 1090 1083 1 
1205 1091 1083 1 
1206 1096 1095 1 
1207 1096 1109 1 
1208 1097 1095 1 
1209 1097 1107 1 
1210 1097 1108 1 
1211 1098 1096 1 
1212 1098 1105 1 
1213 1098 1106 1 
1214 1099 1096 1 
1215 1100 1097 1 
1216 1100 1098 1 
1217 1100 1103 1 
1218 1101 1099 2 
1219 1102 1100 1 
1220 1104 1103 2 
1221 1110 1117 1 
1222 1110 1118 1 
1223 1110 1119 1 
1224 1111 1110 1 
1225 1111 1115 1 
1226 1111 1116 1 
1227 1112 1111 1 
1228 1112 1114 1 
1229 1112 1113 1 
1230 1120 1133 1 
1231 1120 1134 1 
1232 1121 1120 1 
1233 1121 1124 1 
1234 1121 1125 1 
1235 1121 1123 1 
1236 1122 1126 1 
1237 1122 1120 1 
1238 1124 1237 1 
1239 1124 1144 1 
1240 1125 1140 1 
1241 1126 1123 1 
1242 1127 1125 2 
1243 1128 1126 1 
1244 1129 1128 2 
1245 1130 1126 1 
1246 1131 1123 1 
1247 1132 1123 1 
1248 1136 1135 1 
1249 1137 1136 2 
1250 1138 1135 1 
1251 1139 1135 1 
1252 1141 1140 1 
1253 1141 1154 1 
1254 1141 1144 1 
1255 1141 1143 1 
1256 1142 1145 1 
1257 1142 1140 1 
1258 1142 1152 1 
1259 1142 1153 1 
1260 1145 1143 1 
1261 1146 1144 2 
1262 1147 1145 1 
1263 1148 1145 1 
1264 1148 1216 1 
1265 1149 1147 2 
1266 1150 1143 1 
1267 1151 1143 1 
1268 1156 1155 1 
1269 1157 1156 1 
1270 1158 1156 1 
1271 1159 1155 1 
1272 1160 1155 1 
1273 1161 1155 1 
1274 1162 1164 1 
1275 1162 1163 1 
1276 1163 1175 1 
1277 1164 1174 1 
1278 1164 1173 1 
1279 1165 1163 1 
1280 1166 1163 1 
1281 1167 1164 1 
1282 1167 1165 1 
1283 1168 1166 2 
1284 1169 1167 1 
1285 1169 1176 1 
1286 1170 1167 1 
1287 1171 1165 1 
1288 1172 1165 1 
1289 1177 1189 1 
1290 1177 1190 1 
1291 1178 1177 1 
1292 1178 1188 1 
1293 1179 1177 1 
1294 1180 1178 1 
1295 1180 1186 1 
1296 1180 1187 1 
1297 1181 1178 1 
1298 1181 1191 1 
1299 1182 1180 1 
1300 1182 1179 1 
1301 1182 1185 1 
1302 1182 1183 1 
1303 1184 1183 2 
1304 1192 1200 1 
1305 1192 1201 1 
1306 1192 1193 1 
1307 1194 1193 1 
1308 1195 1194 1 
1309 1196 1194 1 
1310 1197 1194 1 
1311 1198 1193 1 
1312 1199 1193 1 
1313 1202 1205 1 
1314 1202 1204 1 
1315 1202 1213 1 
1316 1202 1203 1 
1317 1204 1215 1 
1318 1206 1203 2 
1319 1207 1205 1 
1320 1208 1207 1 
1321 1208 1214 1 
1322 1209 1207 1 
1323 1210 1207 1 
1324 1211 1205 1 
1325 1212 1205 1 
1326 1216 1224 1 
1327 1216 1225 1 
1328 1217 1216 1 
1329 1217 1223 1 
1330 1218 1217 1 
1331 1219 1218 1 
1332 1220 1218 1 
1333 1221 1218 1 
1334 1222 1217 1 
1335 1226 1234 1 
1336 1226 1235 1 
1337 1227 1226 1 
1338 1227 1233 1 
1339 1228 1227 1 
1340 1229 1228 1 
1341 1230 1228 1 
1342 1231 1228 1 
1343 1232 1227 1 
1344 1236 1244 1 
1345 1236 1245 1 
1346 1237 1236 1 
1347 1237 1243 1 
1348 1238 1236 1 
1349 1239 1238 1 
1350 1240 1238 1 
1351 1241 1238 1 
1352 1242 1237 1 
1353 1246 1254 1 
1354 1246 1255 1 
1355 1247 1246 1 
1356 1247 1253 1 
1357 1248 1246 1 
1358 1249 1248 1 
1359 1250 1248 1 
1360 1251 1248 1 
1361 1252 1247 1 
1362 1257 1256 1 
1363 1258 1257 1 
1364 1259 1257 1 
1365 1260 1257 1 
1366 1261 1256 1 
1367 1262 1256 1 
1368 1264 1263 1 
1369 1265 1263 1 
1370 1266 1265 1 
1371 1267 1265 1 
1372 1268 1265 1 
1373 1269 1264 1 
1374 1270 1264 1 
1375 1271 1263 1 
1376 1272 1263 1 
1377 1274 1273 1 
1378 1275 1274 2 
1379 1276 1273 1 
1380 1277 1273 1 
1381 1279 1278 1 
1382 1280 1279 1 
1383 1281 1279 1 
1384 1282 1279 1 
1385 1283 1278 1 
1386 1284 1278 1 
1387 1285 1325 1 
1388 1286 1285 1 
1389 1286 1324 1 
1390 1287 1285 2 
1391 1288 1286 2 
1392 1289 1287 1 
1393 1289 1323 1 
1394 1290 1287 1 
1395 1290 1321 1 
1396 1290 1322 1 
1397 1290 1293 1 
1398 1291 1288 1 
1399 1291 1294 2 
1400 1292 1289 2 
1401 1292 1288 1 
1402 1292 1320 1 
1403 1293 1326 1 
1404 1295 1293 1 
1405 1296 1295 1 
1406 1296 1319 1 
1407 1297 1295 2 
1408 1298 1296 1 
1409 1298 1348 1 
1410 1299 1296 1 
1411 1299 1317 1 
1412 1299 1318 1 
1413 1300 1298 1 
1414 1300 1315 1 
1415 1300 1316 1 
1416 1301 1300 1 
1417 1301 1299 1 
1418 1301 1303 1 
1419 1302 1301 1 
1420 1302 1304 1 
1421 1304 1313 1 
1422 1304 1314 1 
1423 1305 1303 2 
1424 1306 1304 1 
1425 1307 1306 1 
1426 1308 1307 1 
1427 1309 1307 1 
1428 1310 1307 1 
1429 1311 1306 1 
1430 1312 1306 1 
1431 1328 1327 1 
1432 1329 1327 1 
1433 1330 1328 1 
1434 1330 1333 1 
1435 1330 1334 1 
1436 1331 1329 1 
1437 1331 1361 1 
1438 1331 1362 1 
1439 1332 1330 1 
1440 1332 1359 1 
1441 1332 1360 1 
1442 1332 1335 1 
1443 1333 1357 1 
1444 1333 1358 1 
1445 1335 1356 1 
1446 1336 1333 1 
1447 1336 1335 1 
1448 1337 1334 2 
1449 1338 1335 1 
1450 1339 1338 2 
1451 1340 1338 1 
1452 1341 1340 1 
1453 1341 1354 1 
1454 1341 1355 1 
1455 1342 1341 1 
1456 1342 1343 2 
1457 1342 1344 1 
1458 1343 1353 1 
1459 1345 1343 1 
1460 1346 1344 2 
1461 1347 1345 2 
1462 1347 1346 1 
1463 1348 1347 1 
1464 1349 1348 2 
1465 1350 1346 1 
1466 1351 1345 1 
1467 1352 1344 1 
1468 1363 1331 1 
1469 1364 1329 1 
1470 1365 1329 1 
1471 1366 1327 1 
1472 1367 1327 1 
1473 1368 1340 1 
1474 1369 1494 1 
1475 1369 1834 1 
1476 1370 1369 1 
1477 1370 1373 1 
1478 1371 1370 1 
1479 1371 1382 1 
1480 1371 1383 1 
1481 1371 1374 1 
1482 1372 1370 1 
1483 1372 1380 1 
1484 1372 1381 1 
1485 1372 1375 1 
1486 1373 1492 1 
1487 1375 1374 1 
1488 1375 1670 1 
1489 1376 1373 2 
1490 1377 1374 1 
1491 1377 1669 1 
1492 1378 1377 2 
1493 1379 1374 1 
1494 1384 1396 1 
1495 1384 1397 1 
1496 1385 1384 1 
1497 1385 1395 1 
1498 1386 1384 1 
1499 1386 1394 1 
1500 1387 1385 1 
1501 1387 1685 1 
1502 1388 1385 1 
1503 1388 1684 1 
1504 1389 1386 1 
1505 1389 1387 1 
1506 1389 1393 1 
1507 1390 1386 1 
1508 1390 1417 1 
1509 1390 1398 1 
1510 1391 1388 2 
1511 1392 1389 1 
1512 1399 1407 1 
1513 1399 1408 1 
1514 1399 1744 1 
1515 1400 1399 1 
1516 1400 1406 1 
1517 1400 1405 1 
1518 1401 1400 1 
1519 1401 1403 1 
1520 1401 1404 1 
1521 1402 1401 1 
1522 1409 1422 1 
1523 1409 1423 1 
1524 1410 1409 1 
1525 1410 1413 1 
1526 1410 1414 1 
1527 1411 1409 1 
1528 1411 1415 1 
1529 1411 1920 1 
1530 1412 1410 1 
1531 1412 1420 1 
1532 1412 1421 1 
1533 1412 1415 1 
1534 1413 1474 1 
1535 1413 1915 1 
1536 1414 1467 1 
1537 1416 1414 2 
1538 1417 1415 1 
1539 1418 1417 2 
1540 1419 1415 1 
1541 1424 1533 1 
1542 1425 1424 1 
1543 1426 1424 2 
1544 1427 1425 1 
1545 1427 1437 1 
1546 1427 1438 1 
1547 1428 1425 1 
1548 1428 1436 1 
1549 1428 1435 1 
1550 1429 1425 1 
1551 1429 1534 1 
1552 1429 1868 1 
1553 1430 1427 1 
1554 1430 1434 1 
1555 1431 1428 1 
1556 1431 1430 1 
1557 1431 1570 1 
1558 1432 1430 1 
1559 1432 1433 2 
1560 1432 1566 1 
1561 1439 1516 1 
1562 1440 1439 1 
1563 1440 1454 1 
1564 1440 1443 1 
1565 1441 1439 1 
1566 1441 1452 1 
1567 1441 1453 1 
1568 1441 1444 1 
1569 1442 1440 1 
1570 1442 1450 1 
1571 1442 1451 1 
1572 1442 1444 1 
1573 1443 1515 1 
1574 1445 1443 2 
1575 1446 1444 1 
1576 1446 1808 1 
1577 1447 1444 1 
1578 1447 1804 1 
1579 1448 1446 1 
1580 1449 1447 2 
1581 1455 1463 1 
1582 1455 1464 1 
1583 1456 1455 1 
1584 1457 1456 1 
1585 1457 1490 1 
1586 1458 1457 1 
1587 1459 1457 1 
1588 1460 1456 1 
1589 1461 1456 1 
1590 1462 1455 1 
1591 1465 1479 1 
1592 1465 1480 1 
1593 1466 1465 1 
1594 1467 1465 1 
1595 1468 1466 1 
1596 1468 1477 1 
1597 1468 1478 1 
1598 1469 1466 1 
1599 1469 1825 1 
1600 1470 1466 1 
1601 1470 1473 2 
1602 1470 1821 1 
1603 1471 1468 1 
1604 1471 1467 1 
1605 1471 1476 1 
1606 1471 1474 1 
1607 1472 1469 1 
1608 1475 1474 2 
1609 1481 1484 1 
1610 1481 1485 1 
1611 1481 1558 1 
1612 1482 1481 1 
1613 1482 1483 2 
1614 1482 1850 1 
1615 1487 1486 1 
1616 1487 1499 1 
1617 1487 1500 1 
1618 1488 1486 1 
1619 1488 1497 1 
1620 1488 1498 1 
1621 1489 1486 1 
1622 1489 1493 2 
1623 1489 1737 1 
1624 1490 1486 1 
1625 1490 1741 1 
1626 1491 1487 1 
1627 1491 1496 1 
1628 1491 1494 1 
1629 1492 1491 1 
1630 1492 1488 1 
1631 1495 1494 2 
1632 1501 1509 1 
1633 1501 1510 1 
1634 1501 1669 1 
1635 1502 1501 1 
1636 1502 1503 1 
1637 1502 1507 1 
1638 1502 1508 1 
1639 1504 1503 1 
1640 1505 1503 1 
1641 1506 1503 1 
1642 1511 1524 1 
1643 1511 1525 1 
1644 1511 1513 1 
1645 1512 1511 1 
1646 1512 1516 1 
1647 1512 1514 1 
1648 1512 1515 1 
1649 1513 1798 1 
1650 1514 1523 1 
1651 1515 1777 1 
1652 1517 1513 1 
1653 1517 1514 1 
1654 1518 1516 2 
1655 1519 1517 1 
1656 1519 1823 1 
1657 1520 1519 2 
1658 1521 1517 1 
1659 1522 1514 1 
1660 1526 1846 1 
1661 1527 1526 1 
1662 1528 1526 2 
1663 1529 1527 1 
1664 1529 1539 1 
1665 1529 1540 1 
1666 1530 1527 1 
1667 1530 1537 1 
1668 1530 1538 1 
1669 1530 1533 1 
1670 1531 1527 1 
1671 1531 1845 1 
1672 1531 1754 1 
1673 1532 1529 1 
1674 1532 1536 1 
1675 1532 1533 1 
1676 1532 1534 1 
1677 1535 1534 2 
1678 1541 1548 1 
1679 1541 1549 1 
1680 1541 1550 1 
1681 1542 1541 1 
1682 1542 1546 1 
1683 1542 1547 1 
1684 1542 1543 1 
1685 1543 1596 1 
1686 1544 1543 1 
1687 1545 1543 1 
1688 1551 1811 1 
1689 1551 1553 2 
1690 1552 1551 1 
1691 1552 1565 1 
1692 1552 1554 1 
1693 1552 1555 1 
1694 1554 1898 1 
1695 1555 1563 1 
1696 1555 1564 1 
1697 1556 1554 1 
1698 1557 1555 1 
1699 1557 1556 1 
1700 1558 1557 1 
1701 1558 1678 1 
1702 1559 1557 1 
1703 1559 1680 1 
1704 1560 1559 2 
1705 1561 1556 1 
1706 1562 1556 1 
1707 1566 1906 1 
1708 1567 1566 1 
1709 1568 1567 1 
1710 1568 1579 1 
1711 1568 1580 1 
1712 1569 1567 1 
1713 1569 1577 1 
1714 1569 1578 1 
1715 1570 1567 1 
1716 1570 1573 2 
1717 1571 1568 1 
1718 1571 1576 1 
1719 1571 1574 1 
1720 1572 1569 1 
1721 1572 1571 1 
1722 1572 1591 1 
1723 1574 1596 1 
1724 1575 1574 2 
1725 1581 1589 1 
1726 1581 1590 1 
1727 1581 1714 1 
1728 1582 1581 1 
1729 1582 1587 1 
1730 1582 1588 1 
1731 1582 1583 1 
1732 1584 1583 1 
1733 1585 1583 1 
1734 1586 1583 1 
1735 1591 1593 2 
1736 1592 1596 1 
1737 1592 1591 1 
1738 1592 1594 1 
1739 1592 1595 1 
1740 1594 1604 1 
1741 1594 1605 1 
1742 1595 1603 1 
1743 1597 1594 1 
1744 1598 1595 1 
1745 1598 1597 1 
1746 1598 1334 1 
1747 1599 1597 1 
1748 1599 1328 1 
1749 1600 1599 2 
1750 1601 1597 1 
1751 1602 1595 1 
1752 1607 1606 1 
1753 1607 1646 1 
1754 1608 1606 2 
1755 1609 1606 1 
1756 1609 1647 1 
1757 1610 1607 1 
1758 1610 1291 1 
1759 1610 1613 1 
1760 1611 1607 1 
1761 1611 1644 1 
1762 1611 1645 1 
1763 1611 1614 1 
1764 1612 1609 1 
1765 1612 1642 1 
1766 1612 1643 1 
1767 1612 1615 1 
1768 1613 1640 1 
1769 1613 1641 1 
1770 1614 1613 1 
1771 1616 1614 1 
1772 1616 1726 1 
1773 1617 1614 1 
1774 1617 1722 1 
1775 1618 1615 2 
1776 1618 1639 1 
1777 1619 1615 1 
1778 1619 1638 1 
1779 1619 1623 2 
1780 1620 1616 1 
1781 1620 1636 1 
1782 1620 1637 1 
1783 1620 1624 1 
1784 1621 1617 2 
1785 1622 1618 1 
1786 1622 1635 1 
1787 1622 1625 2 
1788 1623 1634 1 
1789 1624 1633 1 
1790 1625 1623 1 
1791 1626 1624 1 
1792 1627 1625 1 
1793 1627 1336 1 
1794 1628 1627 2 
1795 1629 1626 1 
1796 1630 1626 1 
1797 1631 1626 1 
1798 1632 1624 1 
1799 1648 1658 1 
1800 1648 1659 1 
1801 1649 1648 1 
1802 1649 1916 1 
1803 1649 1661 1 
1804 1650 1648 1 
1805 1650 1656 1 
1806 1650 1657 1 
1807 1651 1650 1 
1808 1651 1653 1 
1809 1651 1655 1 
1810 1652 1714 1 
1811 1652 1651 1 
1812 1652 1654 2 
1813 1653 1715 1 
1814 1660 1653 1 
1815 1662 1303 1 
1816 1662 1663 1 
1817 1662 1664 1 
1818 1663 1676 1 
1819 1664 1674 1 
1820 1664 1675 1 
1821 1665 1663 1 
1822 1665 1673 1 
1823 1666 1663 1 
1824 1666 1302 1 
1825 1667 1664 1 
1826 1667 1665 1 
1827 1668 1666 2 
1828 1669 1667 1 
1829 1670 1667 1 
1830 1671 1670 2 
1831 1672 1665 1 
1832 1678 1677 2 
1833 1679 1678 1 
1834 1679 1692 1 
1835 1680 1679 1 
1836 1681 1679 1 
1837 1681 1690 1 
1838 1681 1691 1 
1839 1681 1683 1 
1840 1682 1680 1 
1841 1682 1688 1 
1842 1682 1689 1 
1843 1682 1683 1 
1844 1684 1683 1 
1845 1685 1683 1 
1846 1686 1684 1 
1847 1687 1685 2 
1848 1693 1704 1 
1849 1694 1744 1 
1850 1694 1693 1 
1851 1695 1693 1 
1852 1695 1706 1 
1853 1695 1745 1 
1854 1696 1693 1 
1855 1696 1703 1 
1856 1697 1694 2 
1857 1698 1696 1 
1858 1699 1698 1 
1859 1699 1778 1 
1860 1699 1705 1 
1861 1700 1698 1 
1862 1701 1698 1 
1863 1702 1696 1 
1864 1707 1789 1 
1865 1708 1707 1 
1866 1708 1721 1 
1867 1709 1707 1 
1868 1709 1719 1 
1869 1709 1720 1 
1870 1710 1708 1 
1871 1710 1717 1 
1872 1710 1718 1 
1873 1711 1708 1 
1874 1711 1790 1 
1875 1711 1713 2 
1876 1712 1709 1 
1877 1712 1710 1 
1878 1712 1714 1 
1879 1712 1715 1 
1880 1716 1715 2 
1881 1722 1723 1 
1882 1722 1724 1 
1883 1723 1736 1 
1884 1724 1734 1 
1885 1724 1735 1 
1886 1725 1723 1 
1887 1725 1733 1 
1888 1726 1723 1 
1889 1727 1724 1 
1890 1727 1725 1 
1891 1728 1726 2 
1892 1729 1727 1 
1893 1729 1770 1 
1894 1729 1889 1 
1895 1730 1727 1 
1896 1730 1764 1 
1897 1731 1730 2 
1898 1732 1725 1 
1899 1738 1737 1 
1900 1738 1751 1 
1901 1739 1737 1 
1902 1739 1749 1 
1903 1739 1750 1 
1904 1740 1738 1 
1905 1740 1747 1 
1906 1740 1748 1 
1907 1741 1738 1 
1908 1741 1743 2 
1909 1742 1739 1 
1910 1742 1740 1 
1911 1742 1744 1 
1912 1742 1745 1 
1913 1746 1745 2 
1914 1752 1759 1 
1915 1752 1760 1 
1916 1752 1761 1 
1917 1752 1753 1 
1918 1754 1753 1 
1919 1755 1754 1 
1920 1756 1754 1 
1921 1757 1753 1 
1922 1758 1753 1 
1923 1762 1775 1 
1924 1762 1776 1 
1925 1762 1763 1 
1926 1762 1764 1 
1927 1765 1763 1 
1928 1765 1773 1 
1929 1765 1774 1 
1930 1766 1763 1 
1931 1766 1879 1 
1932 1766 1786 1 
1933 1767 1763 1 
1934 1767 1782 1 
1935 1768 1764 1 
1936 1768 1765 1 
1937 1769 1767 2 
1938 1770 1768 1 
1939 1771 1770 2 
1940 1772 1768 1 
1941 1778 1777 1 
1942 1779 1778 2 
1943 1780 1777 1 
1944 1781 1777 1 
1945 1782 1783 1 
1946 1782 1784 1 
1947 1783 1796 1 
1948 1784 1794 1 
1949 1784 1795 1 
1950 1785 1783 1 
1951 1785 1793 1 
1952 1786 1783 1 
1953 1787 1784 1 
1954 1787 1785 1 
1955 1788 1786 2 
1956 1789 1787 1 
1957 1790 1787 1 
1958 1790 1858 1 
1959 1791 1789 2 
1960 1792 1785 1 
1961 1797 1803 1 
1962 1798 1797 1 
1963 1799 1798 1 
1964 1800 1798 1 
1965 1801 1797 1 
1966 1802 1797 1 
1967 1805 1804 1 
1968 1805 1817 1 
1969 1806 1804 1 
1970 1806 1816 1 
1971 1806 1815 1 
1972 1807 1805 1 
1973 1807 1813 1 
1974 1807 1814 1 
1975 1808 1805 1 
1976 1809 1806 1 
1977 1809 1807 1 
1978 1810 1808 2 
1979 1811 1809 1 
1980 1811 1818 1 
1981 1812 1809 1 
1982 1819 1831 1 
1983 1819 1832 1 
1984 1820 1819 1 
1985 1820 1830 1 
1986 1820 1823 1 
1987 1821 1819 1 
1988 1821 1824 1 
1989 1822 1820 1 
1990 1822 1828 1 
1991 1822 1829 1 
1992 1822 1824 1 
1993 1823 1833 1 
1994 1825 1824 1 
1995 1826 1825 2 
1996 1827 1824 1 
1997 1834 1843 1 
1998 1835 1834 1 
1999 1836 1835 1 
2000 1837 1836 1 
2001 1838 1836 1 
2002 1839 1836 1 
2003 1840 1835 1 
2004 1841 1835 1 
2005 1842 1834 1 
2006 1844 1855 1 
2007 1845 1844 1 
2008 1846 1844 1 
2009 1846 1857 1 
2010 1847 1844 1 
2011 1847 1853 1 
2012 1847 1854 1 
2013 1848 1845 2 
2014 1849 1847 1 
2015 1850 1849 1 
2016 1850 1856 1 
2017 1851 1849 1 
2018 1852 1849 1 
2019 1858 1866 1 
2020 1858 1867 1 
2021 1859 1858 1 
2022 1859 1864 1 
2023 1859 1865 1 
2024 1860 1859 1 
2025 1860 1863 1 
2026 1861 1860 1 
2027 1862 1860 1 
2028 1868 1876 1 
2029 1868 1877 1 
2030 1869 1868 1 
2031 1869 1874 1 
2032 1869 1875 1 
2033 1870 1869 1 
2034 1870 1873 1 
2035 1871 1870 1 
2036 1872 1870 1 
2037 1878 1886 1 
2038 1878 1887 1 
2039 1879 1878 1 
2040 1879 1884 1 
2041 1879 1885 1 
2042 1880 1878 1 
2043 1880 1883 1 
2044 1881 1880 1 
2045 1882 1880 1 
2046 1888 1896 1 
2047 1888 1897 1 
2048 1889 1888 1 
2049 1889 1894 1 
2050 1889 1895 1 
2051 1890 1888 1 
2052 1890 1893 1 
2053 1891 1890 1 
2054 1892 1890 1 
2055 1898 1903 1 
2056 1898 1904 1 
2057 1899 1898 1 
2058 1900 1899 1 
2059 1901 1899 1 
2060 1902 1899 1 
2061 1905 1913 1 
2062 1905 1914 1 
2063 1906 1905 1 
2064 1907 1905 1 
2065 1908 1907 1 
2066 1909 1907 1 
2067 1910 1907 1 
2068 1911 1906 1 
2069 1912 1906 1 
2070 1916 1915 1 
2071 1917 1916 2 
2072 1918 1915 1 
2073 1919 1915 1 
2074 1920 1926 1 
2075 1920 1925 1 
2076 1921 1920 1 
2077 1921 1923 1 
2078 1921 1924 1 
2079 1922 1921 1 
2080 1927 1967 1 
2081 1928 1927 1 
2082 1928 1966 1 
2083 1929 1927 2 
2084 1930 1928 2 
2085 1930 1933 1 
2086 1930 1934 1 
2087 1931 1929 1 
2088 1931 1965 1 
2089 1931 1934 2 
2090 1932 1929 1 
2091 1932 1963 1 
2092 1932 1964 1 
2093 1932 1935 1 
2094 1934 1962 1 
2095 1935 1968 1 
2096 1936 1933 2 
2097 1937 1935 1 
2098 1938 1937 1 
2099 1938 1961 1 
2100 1939 1937 2 
2101 1940 1938 1 
2102 1940 1990 1 
2103 1941 1938 1 
2104 1941 1959 1 
2105 1941 1960 1 
2106 1941 1943 1 
2107 1942 1940 1 
2108 1942 1957 1 
2109 1942 1958 1 
2110 1942 1943 1 
2111 1944 1943 1 
2112 1945 1943 1 
2113 1946 1944 1 
2114 1946 1955 1 
2115 1946 1956 1 
2116 1947 1945 2 
2117 1948 1946 1 
2118 1948 1953 1 
2119 1948 1954 1 
2120 1949 1948 1 
2121 1950 1949 1 
2122 1951 1949 1 
2123 1952 1949 1 
2124 1969 2008 1 
2125 1969 2009 1 
2126 1970 1969 1 
2127 1971 1969 1 
2128 1971 2006 1 
2129 1971 2007 1 
2130 1971 1973 1 
2131 1972 1970 1 
2132 1972 1974 1 
2133 1972 1975 1 
2134 1972 1976 1 
2135 1973 2003 1 
2136 1973 2004 1 
2137 1973 2005 1 
2138 1974 2001 1 
2139 1974 2002 1 
2140 1975 1999 1 
2141 1975 2000 1 
2142 1977 1974 1 
2143 1977 1998 1 
2144 1978 1975 1 
2145 1978 1977 1 
2146 1979 1976 2 
2147 1980 1977 1 
2148 1981 1980 2 
2149 1982 1980 1 
2150 1982 2010 1 
2151 1982 1983 1 
2152 1983 1996 1 
2153 1983 1997 1 
2154 1984 1983 1 
2155 1985 1984 2 
2156 1985 1995 1 
2157 1986 1984 1 
2158 1986 1994 1 
2159 1987 1985 1 
2160 1987 1993 1 
2161 1988 1986 2 
2162 1989 1987 2 
2163 1989 1988 1 
2164 1990 1989 1 
2165 1991 1990 2 
2166 1992 1988 1 
2167 2011 2136 1 
2168 2012 2011 1 
2169 2012 2013 1 
2170 2012 2014 1 
2171 2012 2015 1 
2172 2013 2024 1 
2173 2013 2025 1 
2174 2014 2023 1 
2175 2015 2134 1 
2176 2016 2013 1 
2177 2017 2016 1 
2178 2017 2014 1 
2179 2018 2015 2 
2180 2019 2016 1 
2181 2020 2019 2 
2182 2021 2016 1 
2183 2022 2014 1 
2184 2026 2038 1 
2185 2026 2039 1 
2186 2027 2026 1 
2187 2027 2037 1 
2188 2028 2026 1 
2189 2028 2036 1 
2190 2029 2027 1 
2191 2030 2027 1 
2192 2030 2033 2 
2193 2031 2028 1 
2194 2031 2029 1 
2195 2031 2034 1 
2196 2031 2035 1 
2197 2032 2028 1 
2198 2032 2059 1 
2199 2032 2040 1 
2200 2041 2049 1 
2201 2041 2050 1 
2202 2042 2041 1 
2203 2042 2048 1 
2204 2042 2043 1 
2205 2042 2047 1 
2206 2044 2043 1 
2207 2045 2043 1 
2208 2046 2043 1 
2209 2051 2064 1 
2210 2051 2065 1 
2211 2051 2053 1 
2212 2052 2051 1 
2213 2052 2054 1 
2214 2052 2055 1 
2215 2052 2056 1 
2216 2054 2063 1 
2217 2055 2116 1 
2218 2056 2109 1 
2219 2057 2054 1 
2220 2057 2053 1 
2221 2058 2056 2 
2222 2059 2057 1 
2223 2060 2059 2 
2224 2061 2057 1 
2225 2062 2054 1 
2226 2067 2066 1 
2227 2068 2066 2 
2228 2069 2067 1 
2229 2069 2079 1 
2230 2069 2080 1 
2231 2070 2067 1 
2232 2070 2078 1 
2233 2070 2073 1 
2234 2070 2077 1 
2235 2071 2067 1 
2236 2072 2069 1 
2237 2072 2073 1 
2238 2072 2074 1 
2239 2072 2076 1 
2240 2075 2074 2 
2241 2081 2083 1 
2242 2081 2158 1 
2243 2082 2081 1 
2244 2082 2096 1 
2245 2082 2084 1 
2246 2082 2085 1 
2247 2083 2094 1 
2248 2083 2095 1 
2249 2084 2093 1 
2250 2085 2157 1 
2251 2086 2083 1 
2252 2086 2084 1 
2253 2087 2085 2 
2254 2088 2086 1 
2255 2089 2086 1 
2256 2090 2088 1 
2257 2091 2089 2 
2258 2092 2084 1 
2259 2097 2104 1 
2260 2097 2105 1 
2261 2097 2106 1 
2262 2098 2097 1 
2263 2098 2103 1 
2264 2099 2098 1 
2265 2099 2132 1 
2266 2100 2099 1 
2267 2101 2099 1 
2268 2102 2098 1 
2269 2107 2121 1 
2270 2107 2122 1 
2271 2108 2107 1 
2272 2109 2107 1 
2273 2109 2113 1 
2274 2110 2108 1 
2275 2110 2119 1 
2276 2110 2120 1 
2277 2110 2113 1 
2278 2111 2108 1 
2279 2111 2114 1 
2280 2112 2108 1 
2281 2112 2115 2 
2282 2116 2113 1 
2283 2117 2116 2 
2284 2118 2113 1 
2285 2124 2123 1 
2286 2125 2124 2 
2287 2126 2123 1 
2288 2127 2123 1 
2289 2129 2128 1 
2290 2129 2141 1 
2291 2129 2142 1 
2292 2129 2133 1 
2293 2130 2128 1 
2294 2130 2139 1 
2295 2130 2140 1 
2296 2130 2134 1 
2297 2131 2128 1 
2298 2131 2135 2 
2299 2132 2128 1 
2300 2134 2133 1 
2301 2136 2133 1 
2302 2137 2136 2 
2303 2138 2133 1 
2304 2144 2143 1 
2305 2145 2144 1 
2306 2146 2145 1 
2307 2147 2145 1 
2308 2148 2145 1 
2309 2149 2144 1 
2310 2150 2144 1 
2311 2151 2143 1 
2312 2152 2143 1 
2313 2154 2153 1 
2314 2155 2153 1 
2315 2156 2154 1 
2316 2157 2154 1 
2317 2158 2154 1 
2318 2159 2155 1 
2319 2159 2156 1 
2320 2160 2158 2 
2321 2161 2159 1 
2322 2162 2161 2 
2323 2163 2159 1 
2324 2164 2156 1 
2325 2165 2156 1 
2326 2166 2153 1 
2327 2167 2153 1 
2328 2168 2488 1 
2329 2169 2168 1 
2330 2169 2173 1 
2331 2170 2168 2 
2332 2171 2169 1 
2333 2171 2181 1 
2334 2171 2182 1 
2335 2171 2174 1 
2336 2172 2169 1 
2337 2172 2179 1 
2338 2172 2180 1 
2339 2172 2175 1 
2340 2173 2487 1 
2341 2173 2396 1 
2342 2175 2066 1 
2343 2175 2174 1 
2344 2176 2071 1 
2345 2176 2174 1 
2346 2177 2176 2 
2347 2178 2174 1 
2348 2184 2183 1 
2349 2185 2184 1 
2350 2185 2238 1 
2351 2186 2185 1 
2352 2187 2185 1 
2353 2188 2184 1 
2354 2189 2184 1 
2355 2190 2183 1 
2356 2191 2183 1 
2357 2192 2183 1 
2358 2193 2453 1 
2359 2194 2193 1 
2360 2194 2207 1 
2361 2195 2193 2 
2362 2196 2194 1 
2363 2197 2194 1 
2364 2197 2205 1 
2365 2197 2206 1 
2366 2198 2196 1 
2367 2198 2203 1 
2368 2198 2204 1 
2369 2199 2197 1 
2370 2199 2198 1 
2371 2200 2123 1 
2372 2200 2199 1 
2373 2200 2320 1 
2374 2201 2199 1 
2375 2201 2322 1 
2376 2202 2201 2 
2377 2208 2074 1 
2378 2209 2208 1 
2379 2210 2209 1 
2380 2210 2221 1 
2381 2210 2222 1 
2382 2210 2213 1 
2383 2211 2209 1 
2384 2211 2219 1 
2385 2211 2220 1 
2386 2211 2214 1 
2387 2212 2073 1 
2388 2212 2209 1 
2389 2212 2215 2 
2390 2214 2213 1 
2391 2214 2233 1 
2392 2216 2213 1 
2393 2216 2238 1 
2394 2217 2216 2 
2395 2218 2213 1 
2396 2223 2356 1 
2397 2224 2223 1 
2398 2225 2224 1 
2399 2226 2225 1 
2400 2227 2225 1 
2401 2228 2225 1 
2402 2229 2224 1 
2403 2230 2224 1 
2404 2231 2223 1 
2405 2232 2223 1 
2406 2234 2233 1 
2407 2235 2233 2 
2408 2236 2234 1 
2409 2236 2246 1 
2410 2236 2247 1 
2411 2237 2234 1 
2412 2237 2244 1 
2413 2237 2245 1 
2414 2238 2234 1 
2415 2239 2236 1 
2416 2239 2243 1 
2417 2240 2237 1 
2418 2240 2239 1 
2419 2240 1976 1 
2420 2241 2239 1 
2421 2241 1970 1 
2422 2242 2241 2 
2423 2249 2248 1 
2424 2249 2288 1 
2425 2249 2253 1 
2426 2250 2248 2 
2427 2251 2248 1 
2428 2251 2289 1 
2429 2251 2254 1 
2430 2252 2249 1 
2431 2252 1933 1 
2432 2252 2255 1 
2433 2253 2286 1 
2434 2253 2287 1 
2435 2254 2284 1 
2436 2254 2285 1 
2437 2255 2282 1 
2438 2255 2283 1 
2439 2256 2255 1 
2440 2256 2253 1 
2441 2257 2254 1 
2442 2258 2256 1 
2443 2258 2368 1 
2444 2259 2256 1 
2445 2259 2364 1 
2446 2259 2263 2 
2447 2260 2257 2 
2448 2260 2281 1 
2449 2260 2264 1 
2450 2261 2257 1 
2451 2261 2280 1 
2452 2261 2265 2 
2453 2262 2258 1 
2454 2262 2278 1 
2455 2262 2279 1 
2456 2262 2266 1 
2457 2264 2277 1 
2458 2265 2276 1 
2459 2266 2274 1 
2460 2266 2275 1 
2461 2267 2264 2 
2462 2267 2265 1 
2463 2268 2266 1 
2464 2268 2273 1 
2465 2269 2267 1 
2466 2269 1978 1 
2467 2270 2269 2 
2468 2271 2268 1 
2469 2272 2268 1 
2470 2290 2300 1 
2471 2290 2301 1 
2472 2291 2290 1 
2473 2291 2303 1 
2474 2292 2290 1 
2475 2292 2298 1 
2476 2292 2299 1 
2477 2292 2293 1 
2478 2294 2356 1 
2479 2294 2293 1 
2480 2295 2293 1 
2481 2295 2357 1 
2482 2296 2294 2 
2483 2297 2293 1 
2484 2302 2295 1 
2485 2304 1945 1 
2486 2305 2304 1 
2487 2305 2318 1 
2488 2306 2304 1 
2489 2306 2316 1 
2490 2306 2317 1 
2491 2307 2305 1 
2492 2307 2314 1 
2493 2307 2315 1 
2494 2308 2305 1 
2495 2308 1944 1 
2496 2309 2306 1 
2497 2309 2307 1 
2498 2310 2308 2 
2499 2311 2309 1 
2500 2311 2143 1 
2501 2311 2019 1 
2502 2312 2309 1 
2503 2312 2017 1 
2504 2312 2313 2 
2505 2320 2319 2 
2506 2321 2320 1 
2507 2321 2334 1 
2508 2321 2323 1 
2509 2322 2321 1 
2510 2322 2324 1 
2511 2323 2333 1 
2512 2325 2323 1 
2513 2325 2324 1 
2514 2326 2030 1 
2515 2326 2325 1 
2516 2327 2029 1 
2517 2327 2325 1 
2518 2328 2326 1 
2519 2329 2327 2 
2520 2330 2324 1 
2521 2331 2324 1 
2522 2332 2323 1 
2523 2335 2346 1 
2524 2336 2386 1 
2525 2336 2335 1 
2526 2337 2335 1 
2527 2337 2348 1 
2528 2337 2387 1 
2529 2338 2335 1 
2530 2338 2344 1 
2531 2338 2345 1 
2532 2339 2336 2 
2533 2340 2338 1 
2534 2340 2343 1 
2535 2341 2340 1 
2536 2341 2420 1 
2537 2341 2347 1 
2538 2342 2340 1 
2539 2349 2431 1 
2540 2350 2349 1 
2541 2350 2363 1 
2542 2350 2353 1 
2543 2351 2349 1 
2544 2351 2361 1 
2545 2351 2362 1 
2546 2351 2354 1 
2547 2352 2350 1 
2548 2352 2359 1 
2549 2352 2360 1 
2550 2352 2354 1 
2551 2353 2432 1 
2552 2355 2353 2 
2553 2356 2354 1 
2554 2357 2354 1 
2555 2358 2357 2 
2556 2365 2364 1 
2557 2365 2378 1 
2558 2366 2364 1 
2559 2366 2376 1 
2560 2366 2377 1 
2561 2367 2365 1 
2562 2367 2374 1 
2563 2367 2375 1 
2564 2368 2365 1 
2565 2369 2366 1 
2566 2369 2367 1 
2567 2370 2368 2 
2568 2371 2369 1 
2569 2371 2412 1 
2570 2371 2531 1 
2571 2372 2369 1 
2572 2372 2406 1 
2573 2372 2373 2 
2574 2379 2131 1 
2575 2380 2379 1 
2576 2380 2393 1 
2577 2380 2383 1 
2578 2381 2379 1 
2579 2381 2391 1 
2580 2381 2392 1 
2581 2381 2384 1 
2582 2382 2380 1 
2583 2382 2389 1 
2584 2382 2390 1 
2585 2382 2384 1 
2586 2383 2132 1 
2587 2385 2383 2 
2588 2386 2384 1 
2589 2386 2041 1 
2590 2387 2384 1 
2591 2388 2387 2 
2592 2394 2403 1 
2593 2395 2394 1 
2594 2396 2395 1 
2595 2397 2396 1 
2596 2398 2396 1 
2597 2399 2395 1 
2598 2400 2395 1 
2599 2401 2394 1 
2600 2402 2394 1 
2601 2404 2417 1 
2602 2404 2418 1 
2603 2405 2404 1 
2604 2406 2404 1 
2605 2407 2405 1 
2606 2407 2415 1 
2607 2407 2416 1 
2608 2408 2405 1 
2609 2408 2521 1 
2610 2408 2428 1 
2611 2409 2405 1 
2612 2409 2424 1 
2613 2410 2406 1 
2614 2410 2407 1 
2615 2410 2414 1 
2616 2411 2409 2 
2617 2412 2410 1 
2618 2412 2413 2 
2619 2419 2157 1 
2620 2419 2423 1 
2621 2420 2419 1 
2622 2421 2420 2 
2623 2422 2419 1 
2624 2425 2424 1 
2625 2425 2438 1 
2626 2426 2424 1 
2627 2426 2436 1 
2628 2426 2437 1 
2629 2427 2425 1 
2630 2427 2434 1 
2631 2427 2435 1 
2632 2428 2425 1 
2633 2429 2426 1 
2634 2429 2427 1 
2635 2430 2428 2 
2636 2431 2429 1 
2637 2431 2433 2 
2638 2432 2429 1 
2639 2432 2500 1 
2640 2439 2443 1 
2641 2439 2444 1 
2642 2439 2445 1 
2643 2440 2155 1 
2644 2440 2439 1 
2645 2441 2440 1 
2646 2442 2440 1 
2647 2446 2089 1 
2648 2447 2446 1 
2649 2447 2459 1 
2650 2448 2446 1 
2651 2448 2458 1 
2652 2448 2457 1 
2653 2449 2447 1 
2654 2449 2455 1 
2655 2449 2456 1 
2656 2450 2447 1 
2657 2450 2088 1 
2658 2451 2448 1 
2659 2451 2449 1 
2660 2451 2453 1 
2661 2451 2454 1 
2662 2452 2450 2 
2663 2460 2453 1 
2664 2461 2473 1 
2665 2461 2474 1 
2666 2461 2463 1 
2667 2462 2461 1 
2668 2462 2472 1 
2669 2462 2464 1 
2670 2462 2465 1 
2671 2463 2112 1 
2672 2465 2161 1 
2673 2465 2475 1 
2674 2466 2464 1 
2675 2466 2463 1 
2676 2467 2466 1 
2677 2467 2111 1 
2678 2468 2467 2 
2679 2469 2466 1 
2680 2470 2464 1 
2681 2471 2464 1 
2682 2476 2011 1 
2683 2476 2484 1 
2684 2476 2485 1 
2685 2477 2476 1 
2686 2477 2483 1 
2687 2478 2477 1 
2688 2479 2478 1 
2689 2480 2478 1 
2690 2481 2478 1 
2691 2482 2477 1 
2692 2486 2497 1 
2693 2487 2486 1 
2694 2488 2486 1 
2695 2488 2499 1 
2696 2489 2486 1 
2697 2489 2495 1 
2698 2489 2496 1 
2699 2490 2487 2 
2700 2491 2489 1 
2701 2491 2493 1 
2702 2491 2494 1 
2703 2492 2124 1 
2704 2492 2491 1 
2705 2492 2498 1 
2706 2500 2508 1 
2707 2500 2509 1 
2708 2501 2500 1 
2709 2501 2506 1 
2710 2501 2507 1 
2711 2502 2501 1 
2712 2502 2503 1 
2713 2502 2504 1 
2714 2502 2505 1 
2715 2510 2071 1 
2716 2510 2518 1 
2717 2510 2519 1 
2718 2511 2510 1 
2719 2511 2516 1 
2720 2511 2517 1 
2721 2512 2511 1 
2722 2512 2513 1 
2723 2512 2514 1 
2724 2512 2515 1 
2725 2520 2528 1 
2726 2520 2529 1 
2727 2521 2520 1 
2728 2521 2526 1 
2729 2521 2527 1 
2730 2522 2520 1 
2731 2522 2523 1 
2732 2522 2524 1 
2733 2522 2525 1 
2734 2531 2530 1 
2735 2532 2530 1 
2736 2533 2532 1 
2737 2534 2532 1 
2738 2535 2532 1 
2739 2536 2531 1 
2740 2537 2531 1 
2741 2538 2530 1 
2742 2539 2530 1 
2743 2540 2196 1 
2744 2540 2545 1 
2745 2540 2546 1 
2746 2541 2540 1 
2747 2541 2543 1 
2748 2541 2544 1 
2749 2542 2541 1 
2750 2547 2555 1 
2751 2547 2556 1 
2752 2548 2208 1 
2753 2548 2547 1 
2754 2548 2553 1 
2755 2548 2554 1 
2756 2549 2547 1 
2757 2550 2549 1 
2758 2551 2549 1 
2759 2552 2549 1 
2760 2557 2055 1 
2761 2558 2291 1 
2762 2558 2557 1 
2763 2559 2558 2 
2764 2560 2557 1 
2765 2561 2557 1 
2766 2562 2053 1 
2767 2562 2568 1 
2768 2562 2563 1 
2769 2562 2567 1 
2770 2564 2563 1 
2771 2565 2563 1 
2772 2566 2563 1 
2773 2570 2569 1 
2774 2571 2569 2 
2775 2572 2570 2 
2776 2573 2571 1 
2777 2573 2607 1 
2778 2574 2571 1 
2779 2574 2605 1 
2780 2574 2606 1 
2781 2575 2572 1 
2782 2576 2573 2 
2783 2576 2572 1 
2784 2576 2604 1 
2785 2577 2574 1 
2786 2577 2610 1 
2787 2578 2575 2 
2788 2579 2577 1 
2789 2580 2579 1 
2790 2580 2603 1 
2791 2580 2583 1 
2792 2581 2579 2 
2793 2582 2580 1 
2794 2582 2632 1 
2795 2582 2584 1 
2796 2583 2601 1 
2797 2583 2602 1 
2798 2584 2599 1 
2799 2584 2600 1 
2800 2585 2584 1 
2801 2585 2583 1 
2802 2586 2585 1 
2803 2587 2585 1 
2804 2588 2586 1 
2805 2588 2597 1 
2806 2588 2598 1 
2807 2589 2587 2 
2808 2590 2588 1 
2809 2590 2595 1 
2810 2590 2596 1 
2811 2591 2590 1 
2812 2591 2593 1 
2813 2591 2594 1 
2814 2592 2591 1 
2815 2608 2570 1 
2816 2609 2569 1 
2817 2611 2650 1 
2818 2611 2651 1 
2819 2611 2613 1 
2820 2612 2611 1 
2821 2612 2614 1 
2822 2613 2648 1 
2823 2613 2649 1 
2824 2615 2613 1 
2825 2615 2645 1 
2826 2615 2646 1 
2827 2615 2647 1 
2828 2616 2614 1 
2829 2616 2643 1 
2830 2616 2644 1 
2831 2617 2614 1 
2832 2617 2641 1 
2833 2617 2642 1 
2834 2618 2614 1 
2835 2619 2616 1 
2836 2619 2640 1 
2837 2620 2617 1 
2838 2620 2619 1 
2839 2621 2618 2 
2840 2622 2619 1 
2841 2622 2623 2 
2842 2622 2624 1 
2843 2624 2652 1 
2844 2625 2624 1 
2845 2625 2638 1 
2846 2625 2639 1 
2847 2626 2625 1 
2848 2627 2626 2 
2849 2627 2637 1 
2850 2628 2626 1 
2851 2628 2636 1 
2852 2629 2627 1 
2853 2629 2635 1 
2854 2630 2628 2 
2855 2630 2634 1 
2856 2631 2629 2 
2857 2631 2630 1 
2858 2632 2631 1 
2859 2632 2633 2 
2860 2653 2778 1 
2861 2654 2653 1 
2862 2655 2654 1 
2863 2655 2666 1 
2864 2655 2667 1 
2865 2656 2654 1 
2866 2656 2664 1 
2867 2656 2665 1 
2868 2657 2654 1 
2869 2657 2776 1 
2870 2658 2655 1 
2871 2658 2663 1 
2872 2659 2658 1 
2873 2659 2656 1 
2874 2660 2657 2 
2875 2661 2658 1 
2876 2662 2661 2 
2877 2668 2680 1 
2878 2668 2681 1 
2879 2669 2668 1 
2880 2669 2679 1 
2881 2670 2668 1 
2882 2670 2673 1 
2883 2670 2674 1 
2884 2670 2678 1 
2885 2671 2669 1 
2886 2671 2673 1 
2887 2672 2669 1 
2888 2672 2675 2 
2889 2674 2701 1 
2890 2676 2673 1 
2891 2677 2673 1 
2892 2682 2674 1 
2893 2684 2683 1 
2894 2685 2684 1 
2895 2686 2685 1 
2896 2687 2685 1 
2897 2688 2685 1 
2898 2689 2684 1 
2899 2690 2684 1 
2900 2691 2683 1 
2901 2692 2683 1 
2902 2693 2706 1 
2903 2693 2707 1 
2904 2694 2693 1 
2905 2695 2693 1 
2906 2696 2694 1 
2907 2696 2704 1 
2908 2696 2705 1 
2909 2697 2694 1 
2910 2697 2758 1 
2911 2698 2694 1 
2912 2698 2751 1 
2913 2699 2696 1 
2914 2699 2695 1 
2915 2699 2703 1 
2916 2700 2698 2 
2917 2701 2699 1 
2918 2702 2701 2 
2919 2708 2817 1 
2920 2709 2708 1 
2921 2709 2713 1 
2922 2710 2708 2 
2923 2711 2709 1 
2924 2711 2721 1 
2925 2711 2722 1 
2926 2711 2714 1 
2927 2712 2709 1 
2928 2712 2720 1 
2929 2712 2715 1 
2930 2712 2719 1 
2931 2713 2818 1 
2932 2715 2714 1 
2933 2715 2854 1 
2934 2716 2714 1 
2935 2716 2850 1 
2936 2717 2716 2 
2937 2718 2714 1 
2938 2723 2800 1 
2939 2724 2723 1 
2940 2724 2738 1 
2941 2725 2723 1 
2942 2725 2736 1 
2943 2725 2737 1 
2944 2726 2724 1 
2945 2726 2734 1 
2946 2726 2735 1 
2947 2727 2724 1 
2948 2727 2799 1 
2949 2728 2725 1 
2950 2728 2726 1 
2951 2729 2727 2 
2952 2730 2728 1 
2953 2731 2728 1 
2954 2731 2733 2 
2955 2732 2730 1 
2956 2739 2746 1 
2957 2739 2747 1 
2958 2739 2748 1 
2959 2740 2739 1 
2960 2740 2744 1 
2961 2740 2745 1 
2962 2741 2740 1 
2963 2741 2774 1 
2964 2741 2743 1 
2965 2742 2741 1 
2966 2749 2763 1 
2967 2749 2764 1 
2968 2750 2749 1 
2969 2750 2753 1 
2970 2750 2754 1 
2971 2751 2749 1 
2972 2751 2755 1 
2973 2752 2750 1 
2974 2752 2761 1 
2975 2752 2762 1 
2976 2752 2755 1 
2977 2756 2753 1 
2978 2757 2754 2 
2979 2758 2755 1 
2980 2759 2758 2 
2981 2760 2755 1 
2982 2765 2842 1 
2983 2766 2765 1 
2984 2767 2766 2 
2985 2768 2765 1 
2986 2769 2765 1 
2987 2770 2773 1 
2988 2770 2774 1 
2989 2771 2770 1 
2990 2771 2783 1 
2991 2771 2784 1 
2992 2771 2775 1 
2993 2772 2770 1 
2994 2772 2781 1 
2995 2772 2782 1 
2996 2772 2776 1 
2997 2776 2775 1 
2998 2777 2773 2 
2999 2778 2775 1 
3000 2779 2778 2 
3001 2780 2775 1 
3002 2785 2793 1 
3003 2785 2794 1 
3004 2786 2785 1 
3005 2787 2786 1 
3006 2788 2787 1 
3007 2789 2787 1 
3008 2790 2787 1 
3009 2791 2786 1 
3010 2792 2786 1 
3011 2795 2808 1 
3012 2795 2809 1 
3013 2796 2795 1 
3014 2797 2795 1 
3015 2798 2796 1 
3016 2798 2806 1 
3017 2798 2807 1 
3018 2799 2796 1 
3019 2800 2796 1 
3020 2801 2797 1 
3021 2801 2798 1 
3022 2801 2803 1 
3023 2801 2805 1 
3024 2802 2800 2 
3025 2804 2803 2 
3026 2811 2810 1 
3027 2811 2813 1 
3028 2811 2814 1 
3029 2811 2815 1 
3030 2812 2810 2 
3031 2813 2823 1 
3032 2813 2824 1 
3033 2816 2813 1 
3034 2817 2814 1 
3035 2817 2816 1 
3036 2818 2816 1 
3037 2819 2818 2 
3038 2820 2816 1 
3039 2821 2814 1 
3040 2822 2814 1 
3041 2825 2833 1 
3042 2825 2834 1 
3043 2826 2825 1 
3044 2827 2826 1 
3045 2828 2827 1 
3046 2829 2827 1 
3047 2830 2826 1 
3048 2831 2826 1 
3049 2832 2825 1 
3050 2836 2835 1 
3051 2836 2849 1 
3052 2837 2835 2 
3053 2838 2836 1 
3054 2839 2836 1 
3055 2839 2847 1 
3056 2839 2848 1 
3057 2840 2838 1 
3058 2840 2845 1 
3059 2840 2846 1 
3060 2841 2839 1 
3061 2841 2840 1 
3062 2841 2843 1 
3063 2842 2841 1 
3064 2844 2843 2 
3065 2851 2850 1 
3066 2851 2853 1 
3067 2851 2854 1 
3068 2852 2851 1 
3069 2852 2863 1 
3070 2852 2864 1 
3071 2852 2855 1 
3072 2856 2853 1 
3073 2856 2855 1 
3074 2857 2854 2 
3075 2858 2855 1 
3076 2859 2858 2 
3077 2860 2855 1 
3078 2861 2853 1 
3079 2862 2853 1 
3080 2866 2865 1 
3081 2867 2866 1 
3082 2868 2867 1 
3083 2869 2867 1 
3084 2870 2867 1 
3085 2871 2866 1 
3086 2872 2866 1 
3087 2873 2865 1 
3088 2874 2865 1 
3089 2875 2856 1 
3090 2876 2875 1 
3091 2877 2875 2 
3092 2878 2876 1 
3093 2878 2888 1 
3094 2878 2889 1 
3095 2879 2876 1 
3096 2879 2886 1 
3097 2879 2887 1 
3098 2880 2827 1 
3099 2880 2858 1 
3100 2880 2876 1 
3101 2881 2878 1 
3102 2881 2883 1 
3103 2881 2885 1 
3104 2882 2879 1 
3105 2882 2881 1 
3106 2882 2618 1 
3107 2883 2612 1 
3108 2884 2883 2 
3109 2890 2893 1 
3110 2891 2890 1 
3111 2891 2930 1 
3112 2891 2894 1 
3113 2891 2895 1 
3114 2892 2890 2 
3115 2893 2931 1 
3116 2894 2575 1 
3117 2895 2928 1 
3118 2895 2929 1 
3119 2896 2893 1 
3120 2896 2926 1 
3121 2896 2927 1 
3122 2897 2894 1 
3123 2897 2924 1 
3124 2897 2925 1 
3125 2898 2897 1 
3126 2898 2895 1 
3127 2899 2896 1 
3128 2899 2903 1 
3129 2900 2898 1 
3130 2900 3010 1 
3131 2900 2904 1 
3132 2901 2898 1 
3133 2901 3006 1 
3134 2901 2905 2 
3135 2902 2899 2 
3136 2902 2923 1 
3137 2902 2906 1 
3138 2903 2922 1 
3139 2904 2920 1 
3140 2904 2921 1 
3141 2906 2919 1 
3142 2907 2903 2 
3143 2907 2918 1 
3144 2908 2904 1 
3145 2908 2916 1 
3146 2908 2917 1 
3147 2909 2906 2 
3148 2909 2907 1 
3149 2910 2908 1 
3150 2910 2913 1 
3151 2910 2914 1 
3152 2910 2915 1 
3153 2911 2909 1 
3154 2911 2620 1 
3155 2912 2911 2 
3156 2932 2942 1 
3157 2932 2943 1 
3158 2932 2933 1 
3159 2932 2934 1 
3160 2933 3200 1 
3161 2933 2945 1 
3162 2935 2934 1 
3163 2936 2998 1 
3164 2936 2935 1 
3165 2937 2935 1 
3166 2937 2944 1 
3167 2937 2999 1 
3168 2938 2936 2 
3169 2939 2935 1 
3170 2940 2934 1 
3171 2941 2934 1 
3172 2946 2587 1 
3173 2947 2946 1 
3174 2947 2960 1 
3175 2948 2946 1 
3176 2948 2958 1 
3177 2948 2959 1 
3178 2949 2947 1 
3179 2949 2956 1 
3180 2949 2957 1 
3181 2950 2947 1 
3182 2950 2586 1 
3183 2951 2948 1 
3184 2951 2949 1 
3185 2951 2953 1 
3186 2951 2954 1 
3187 2952 2950 2 
3188 2953 2785 1 
3189 2953 2661 1 
3190 2954 2659 1 
3191 2955 2954 2 
3192 2962 2842 1 
3193 2962 2961 2 
3194 2962 2963 1 
3195 2963 2976 1 
3196 2964 2843 1 
3197 2964 2963 1 
3198 2965 2963 1 
3199 2965 2974 1 
3200 2965 2975 1 
3201 2966 2964 1 
3202 2966 2973 1 
3203 2967 2965 1 
3204 2967 2966 1 
3205 2968 2672 1 
3206 2968 2967 1 
3207 2969 2671 1 
3208 2969 2967 1 
3209 2970 2968 1 
3210 2971 2969 2 
3211 2972 2966 1 
3212 2977 2988 1 
3213 2978 3028 1 
3214 2978 2977 1 
3215 2979 2977 1 
3216 2979 2990 1 
3217 2979 3029 1 
3218 2980 2977 1 
3219 2980 2986 1 
3220 2980 2987 1 
3221 2981 2978 2 
3222 2982 2980 1 
3223 2982 2983 1 
3224 2982 2984 1 
3225 2982 2985 1 
3226 2983 3062 1 
3227 2989 2983 1 
3228 2991 3073 1 
3229 2991 2993 1 
3230 2992 2991 1 
3231 2992 3005 1 
3232 2992 2994 1 
3233 2992 2995 1 
3234 2993 3003 1 
3235 2993 3004 1 
3236 2995 3074 1 
3237 2996 2993 1 
3238 2996 2994 1 
3239 2997 2995 2 
3240 2998 2865 1 
3241 2998 2996 1 
3242 2999 2996 1 
3243 3000 2999 2 
3244 3001 2994 1 
3245 3002 2994 1 
3246 3007 3006 1 
3247 3007 3020 1 
3248 3008 3006 1 
3249 3008 3018 1 
3250 3008 3019 1 
3251 3009 3007 1 
3252 3009 3016 1 
3253 3009 3017 1 
3254 3010 3007 1 
3255 3011 3008 1 
3256 3011 3009 1 
3257 3011 3013 1 
3258 3011 3014 1 
3259 3012 3010 2 
3260 3013 3054 1 
3261 3013 3173 1 
3262 3014 3048 1 
3263 3015 3014 2 
3264 3021 2773 1 
3265 3021 3023 1 
3266 3022 3021 1 
3267 3022 3035 1 
3268 3022 3024 1 
3269 3022 3025 1 
3270 3023 3033 1 
3271 3023 3034 1 
3272 3025 2774 1 
3273 3026 3023 1 
3274 3026 3024 1 
3275 3027 3025 2 
3276 3028 3026 1 
3277 3028 2683 1 
3278 3029 3026 1 
3279 3030 3029 2 
3280 3031 3024 1 
3281 3032 3024 1 
3282 3036 3043 1 
3283 3036 3044 1 
3284 3036 3045 1 
3285 3037 3036 1 
3286 3038 2815 1 
3287 3038 3037 1 
3288 3039 3038 1 
3289 3040 3038 1 
3290 3041 3037 1 
3291 3042 3037 1 
3292 3046 3059 1 
3293 3046 3060 1 
3294 3047 3046 1 
3295 3048 3046 1 
3296 3049 3047 1 
3297 3049 3057 1 
3298 3049 3058 1 
3299 3050 3047 1 
3300 3050 3163 1 
3301 3050 3070 1 
3302 3051 3047 1 
3303 3051 3066 1 
3304 3051 3053 2 
3305 3052 3048 1 
3306 3052 3049 1 
3307 3052 3054 1 
3308 3052 3056 1 
3309 3055 3054 2 
3310 3061 2799 1 
3311 3061 3064 1 
3312 3061 3065 1 
3313 3062 3061 1 
3314 3062 3063 2 
3315 3067 3066 1 
3316 3067 3080 1 
3317 3068 3066 1 
3318 3068 3078 1 
3319 3068 3079 1 
3320 3069 3067 1 
3321 3069 3076 1 
3322 3069 3077 1 
3323 3070 3067 1 
3324 3071 3068 1 
3325 3071 3069 1 
3326 3071 3073 1 
3327 3071 3074 1 
3328 3072 3070 2 
3329 3074 3142 1 
3330 3075 3073 2 
3331 3081 3085 1 
3332 3081 3086 1 
3333 3081 3087 1 
3334 3082 2797 1 
3335 3082 3081 1 
3336 3082 3083 1 
3337 3082 3084 1 
3338 3088 2731 1 
3339 3089 3088 1 
3340 3089 3101 1 
3341 3090 3088 1 
3342 3090 3100 1 
3343 3090 3093 1 
3344 3090 3099 1 
3345 3091 3089 1 
3346 3091 3093 1 
3347 3091 3097 1 
3348 3091 3098 1 
3349 3092 3089 1 
3350 3092 2730 1 
3351 3092 3094 2 
3352 3095 2835 1 
3353 3095 3093 1 
3354 3096 3093 1 
3355 3102 3095 1 
3356 3103 3115 1 
3357 3103 3116 1 
3358 3104 3103 1 
3359 3104 3114 1 
3360 3105 3103 1 
3361 3105 2754 1 
3362 3106 3104 1 
3363 3106 3113 1 
3364 3107 2803 1 
3365 3107 3104 1 
3366 3107 3117 1 
3367 3108 3106 1 
3368 3108 3105 1 
3369 3109 3108 1 
3370 3109 2753 1 
3371 3110 3109 2 
3372 3111 3108 1 
3373 3112 3106 1 
3374 3118 2653 1 
3375 3118 3126 1 
3376 3118 3127 1 
3377 3119 3118 1 
3378 3119 3124 1 
3379 3119 3125 1 
3380 3120 3119 1 
3381 3120 3123 1 
3382 3121 3120 1 
3383 3122 3120 1 
3384 3128 3139 1 
3385 3129 2815 1 
3386 3129 3128 1 
3387 3130 2810 1 
3388 3130 3128 1 
3389 3130 3141 1 
3390 3131 3128 1 
3391 3131 3133 1 
3392 3131 3137 1 
3393 3131 3138 1 
3394 3132 3129 2 
3395 3134 2766 1 
3396 3134 3133 1 
3397 3135 3133 1 
3398 3136 3133 1 
3399 3140 3134 1 
3400 3142 3150 1 
3401 3142 3151 1 
3402 3142 3143 1 
3403 3144 3143 1 
3404 3145 3144 1 
3405 3146 3144 1 
3406 3147 3144 1 
3407 3148 3143 1 
3408 3149 3143 1 
3409 3152 2713 1 
3410 3152 3160 1 
3411 3152 3161 1 
3412 3152 3153 1 
3413 3154 3153 1 
3414 3155 3154 1 
3415 3156 3154 1 
3416 3157 3154 1 
3417 3158 3153 1 
3418 3159 3153 1 
3419 3162 3170 1 
3420 3162 3171 1 
3421 3162 3163 1 
3422 3162 3164 1 
3423 3165 3164 1 
3424 3166 3164 1 
3425 3167 3164 1 
3426 3168 3163 1 
3427 3169 3163 1 
3428 3172 3180 1 
3429 3172 3181 1 
3430 3172 3173 1 
3431 3172 3174 1 
3432 3175 3174 1 
3433 3176 3174 1 
3434 3177 3174 1 
3435 3178 3173 1 
3436 3179 3173 1 
3437 3182 2838 1 
3438 3182 3183 1 
3439 3182 3187 1 
3440 3182 3188 1 
3441 3184 3183 1 
3442 3185 3183 1 
3443 3186 3183 1 
3444 3189 3197 1 
3445 3189 3198 1 
3446 3190 2850 1 
3447 3190 3189 1 
3448 3190 3195 1 
3449 3190 3196 1 
3450 3191 3189 1 
3451 3191 3193 1 
3452 3191 3194 1 
3453 3192 3191 1 
3454 3199 2697 1 
3455 3199 3203 1 
3456 3200 3199 1 
3457 3201 3200 2 
3458 3202 3199 1 
3459 3204 2695 1 
3460 3205 3204 1 
3461 3206 3205 1 
3462 3207 3205 1 
3463 3208 3205 1 
3464 3209 3204 1 
3465 3210 3204 1 
3466 3211 3213 2 
3467 3212 3211 1 
3468 3212 3214 2 
3469 3215 3213 1 
3470 3216 3213 1 
3471 3217 3214 1 
3472 3218 3215 2 
3473 3218 3214 1 
3474 3219 3216 1 
3475 3220 3217 2 
3476 3221 3223 2 
3477 3221 3219 1 
3478 3222 3221 1 
3479 3222 3224 1 
3480 3222 3225 1 
3481 3226 3224 1 
3482 3226 3241 1 
3483 3226 3242 1 
3484 3227 3226 1 
3485 3227 3225 1 
3486 3228 3227 1 
3487 3229 3227 1 
3488 3230 3228 1 
3489 3230 3239 1 
3490 3230 3240 1 
3491 3231 3229 2 
3492 3232 3230 1 
3493 3232 3233 1 
3494 3232 3237 1 
3495 3232 3238 1 
3496 3234 3233 1 
3497 3235 3233 1 
3498 3236 3233 1 
3499 3243 3225 1 
3500 3244 3225 1 
3501 3245 3222 1 
3502 3246 3218 1 
3503 3247 3216 1 
3504 3248 3216 1 
3505 3249 3215 1 
3506 3250 3212 1 
3507 3251 3211 1 
3508 3252 3219 1 
3509 3253 3292 1 
3510 3253 3293 1 
3511 3254 3253 1 
3512 3254 3525 1 
3513 3255 3253 1 
3514 3255 3290 1 
3515 3255 3291 1 
3516 3256 3254 1 
3517 3257 3255 1 
3518 3257 3287 1 
3519 3257 3288 1 
3520 3257 3289 1 
3521 3258 3256 1 
3522 3258 3285 1 
3523 3258 3286 1 
3524 3259 3256 1 
3525 3259 3283 1 
3526 3259 3284 1 
3527 3260 3256 1 
3528 3260 3263 2 
3529 3260 3524 1 
3530 3261 3258 1 
3531 3261 3264 1 
3532 3261 3282 1 
3533 3262 3259 1 
3534 3262 3261 1 
3535 3262 3553 1 
3536 3265 3264 2 
3537 3266 3264 1 
3538 3266 3294 1 
3539 3267 3266 1 
3540 3267 3280 1 
3541 3267 3281 1 
3542 3268 3267 1 
3543 3269 3268 2 
3544 3269 3279 1 
3545 3270 3268 1 
3546 3270 3278 1 
3547 3271 3269 1 
3548 3271 3273 2 
3549 3271 3277 1 
3550 3272 3270 2 
3551 3272 3273 1 
3552 3272 3276 1 
3553 3274 3224 1 
3554 3274 3273 1 
3555 3275 3274 2 
3556 3295 3420 1 
3557 3295 3760 1 
3558 3296 3295 1 
3559 3297 3296 1 
3560 3297 3308 1 
3561 3297 3309 1 
3562 3298 3296 1 
3563 3298 3306 1 
3564 3298 3307 1 
3565 3299 3296 1 
3566 3299 3418 1 
3567 3300 3297 1 
3568 3300 3303 1 
3569 3300 3305 1 
3570 3301 3300 1 
3571 3301 3298 1 
3572 3301 3596 1 
3573 3302 3299 2 
3574 3303 3595 1 
3575 3304 3303 2 
3576 3310 3322 1 
3577 3310 3323 1 
3578 3311 3310 1 
3579 3311 3313 1 
3580 3311 3321 1 
3581 3311 3314 1 
3582 3312 3310 1 
3583 3312 3315 1 
3584 3312 3316 1 
3585 3312 3320 1 
3586 3313 3611 1 
3587 3314 3610 1 
3588 3315 3313 1 
3589 3316 3343 1 
3590 3316 3324 1 
3591 3317 3314 2 
3592 3318 3315 1 
3593 3319 3315 1 
3594 3325 3333 1 
3595 3325 3334 1 
3596 3325 3670 1 
3597 3326 3325 1 
3598 3327 3326 1 
3599 3328 3327 1 
3600 3329 3327 1 
3601 3330 3327 1 
3602 3331 3326 1 
3603 3332 3326 1 
3604 3335 3348 1 
3605 3335 3349 1 
3606 3336 3335 1 
3607 3337 3335 1 
3608 3337 3846 1 
3609 3338 3336 1 
3610 3338 3346 1 
3611 3338 3347 1 
3612 3339 3336 1 
3613 3339 3400 1 
3614 3339 3841 1 
3615 3340 3336 1 
3616 3340 3393 1 
3617 3341 3338 1 
3618 3341 3337 1 
3619 3341 3343 1 
3620 3341 3345 1 
3621 3342 3340 2 
3622 3344 3343 2 
3623 3350 3459 1 
3624 3351 3353 1 
3625 3351 3350 1 
3626 3351 3355 1 
3627 3351 3354 1 
3628 3352 3350 2 
3629 3353 3363 1 
3630 3353 3364 1 
3631 3355 3460 1 
3632 3355 3794 1 
3633 3356 3353 1 
3634 3357 3354 1 
3635 3357 3356 1 
3636 3357 3496 1 
3637 3358 3356 1 
3638 3358 3492 1 
3639 3359 3358 2 
3640 3360 3356 1 
3641 3361 3354 1 
3642 3362 3354 1 
3643 3365 3442 1 
3644 3366 3365 1 
3645 3366 3380 1 
3646 3367 3365 1 
3647 3367 3378 1 
3648 3367 3379 1 
3649 3368 3366 1 
3650 3368 3376 1 
3651 3368 3377 1 
3652 3369 3366 1 
3653 3369 3441 1 
3654 3370 3367 1 
3655 3370 3368 1 
3656 3370 3373 1 
3657 3371 3369 2 
3658 3372 3370 1 
3659 3372 3374 1 
3660 3372 3734 1 
3661 3373 3730 1 
3662 3375 3373 2 
3663 3381 3388 1 
3664 3381 3389 1 
3665 3381 3390 1 
3666 3382 3381 1 
3667 3382 3383 1 
3668 3382 3386 1 
3669 3382 3387 1 
3670 3383 3416 1 
3671 3384 3383 1 
3672 3385 3383 1 
3673 3391 3393 1 
3674 3391 3405 1 
3675 3391 3406 1 
3676 3392 3391 1 
3677 3392 3394 1 
3678 3392 3395 1 
3679 3392 3396 1 
3680 3394 3403 1 
3681 3394 3404 1 
3682 3395 3751 1 
3683 3396 3747 1 
3684 3397 3394 1 
3685 3397 3393 1 
3686 3398 3395 1 
3687 3399 3396 2 
3688 3400 3397 1 
3689 3401 3400 2 
3690 3402 3397 1 
3691 3407 3484 1 
3692 3408 3407 1 
3693 3408 3776 1 
3694 3409 3408 2 
3695 3410 3407 1 
3696 3411 3407 1 
3697 3412 3413 1 
3698 3412 3414 1 
3699 3412 3415 1 
3700 3412 3416 1 
3701 3413 3425 1 
3702 3413 3426 1 
3703 3414 3423 1 
3704 3414 3424 1 
3705 3415 3663 1 
3706 3416 3667 1 
3707 3417 3413 1 
3708 3418 3417 1 
3709 3418 3414 1 
3710 3419 3415 2 
3711 3420 3417 1 
3712 3421 3420 2 
3713 3422 3417 1 
3714 3427 3435 1 
3715 3427 3436 1 
3716 3427 3595 1 
3717 3428 3427 1 
3718 3428 3433 1 
3719 3428 3434 1 
3720 3429 3428 1 
3721 3430 3429 1 
3722 3431 3429 1 
3723 3432 3429 1 
3724 3437 3450 1 
3725 3437 3451 1 
3726 3438 3437 1 
3727 3439 3437 1 
3728 3439 3443 1 
3729 3439 3724 1 
3730 3440 3438 1 
3731 3440 3443 1 
3732 3440 3448 1 
3733 3440 3449 1 
3734 3441 3438 1 
3735 3441 3703 1 
3736 3442 3438 1 
3737 3442 3444 2 
3738 3445 3443 1 
3739 3445 3749 1 
3740 3446 3445 2 
3741 3447 3443 1 
3742 3452 3772 1 
3743 3452 3453 1 
3744 3452 3454 2 
3745 3455 3453 1 
3746 3455 3465 1 
3747 3455 3466 1 
3748 3456 3453 1 
3749 3456 3463 1 
3750 3456 3464 1 
3751 3457 3453 1 
3752 3457 3771 1 
3753 3457 3680 1 
3754 3458 3455 1 
3755 3459 3456 1 
3756 3459 3458 1 
3757 3460 3458 1 
3758 3461 3460 2 
3759 3462 3458 1 
3760 3467 3474 1 
3761 3467 3475 1 
3762 3467 3476 1 
3763 3468 3467 1 
3764 3468 3473 1 
3765 3469 3468 1 
3766 3469 3522 1 
3767 3470 3469 1 
3768 3471 3469 1 
3769 3472 3468 1 
3770 3477 3737 1 
3771 3478 3477 1 
3772 3478 3491 1 
3773 3479 3477 2 
3774 3480 3478 1 
3775 3480 3824 1 
3776 3481 3478 1 
3777 3481 3489 1 
3778 3481 3490 1 
3779 3481 3483 1 
3780 3482 3480 1 
3781 3482 3483 1 
3782 3482 3487 1 
3783 3482 3488 1 
3784 3484 3483 1 
3785 3484 3604 1 
3786 3485 3483 1 
3787 3485 3606 1 
3788 3486 3485 2 
3789 3492 3832 1 
3790 3492 3493 1 
3791 3494 3493 1 
3792 3494 3505 1 
3793 3494 3506 1 
3794 3495 3493 1 
3795 3495 3503 1 
3796 3495 3504 1 
3797 3496 3493 1 
3798 3497 3494 1 
3799 3498 3495 1 
3800 3498 3497 1 
3801 3498 3517 1 
3802 3499 3496 2 
3803 3500 3497 1 
3804 3500 3522 1 
3805 3501 3500 2 
3806 3502 3497 1 
3807 3507 3515 1 
3808 3507 3516 1 
3809 3507 3640 1 
3810 3508 3507 1 
3811 3508 3513 1 
3812 3508 3514 1 
3813 3509 3508 1 
3814 3510 3509 1 
3815 3511 3509 1 
3816 3512 3509 1 
3817 3518 3517 1 
3818 3519 3517 2 
3819 3520 3518 1 
3820 3520 3523 1 
3821 3520 3530 1 
3822 3520 3531 1 
3823 3521 3518 1 
3824 3521 3524 1 
3825 3521 3528 1 
3826 3521 3529 1 
3827 3522 3518 1 
3828 3524 3523 1 
3829 3525 3523 1 
3830 3526 3525 2 
3831 3527 3523 1 
3832 3532 3533 1 
3833 3532 3534 2 
3834 3532 3535 1 
3835 3533 3572 1 
3836 3535 3573 1 
3837 3536 3533 1 
3838 3536 3217 1 
3839 3537 3533 1 
3840 3537 3570 1 
3841 3537 3571 1 
3842 3538 3535 1 
3843 3538 3568 1 
3844 3538 3569 1 
3845 3539 3536 1 
3846 3539 3566 1 
3847 3539 3567 1 
3848 3540 3539 1 
3849 3540 3537 1 
3850 3540 3543 1 
3851 3541 3538 1 
3852 3541 3544 2 
3853 3541 3545 1 
3854 3542 3540 1 
3855 3542 3652 1 
3856 3542 3546 1 
3857 3543 3648 1 
3858 3544 3565 1 
3859 3545 3564 1 
3860 3546 3562 1 
3861 3546 3563 1 
3862 3547 3543 2 
3863 3548 3544 1 
3864 3548 3561 1 
3865 3549 3545 2 
3866 3549 3560 1 
3867 3550 3546 1 
3868 3550 3558 1 
3869 3550 3559 1 
3870 3551 3553 1 
3871 3551 3548 2 
3872 3551 3549 1 
3873 3552 3550 1 
3874 3552 3555 1 
3875 3552 3556 1 
3876 3552 3557 1 
3877 3554 3553 2 
3878 3574 3584 1 
3879 3574 3585 1 
3880 3575 3574 1 
3881 3575 3842 1 
3882 3575 3587 1 
3883 3576 3574 1 
3884 3576 3583 1 
3885 3577 3576 1 
3886 3578 3640 1 
3887 3578 3577 1 
3888 3579 3577 1 
3889 3579 3586 1 
3890 3579 3641 1 
3891 3580 3578 2 
3892 3581 3577 1 
3893 3582 3576 1 
3894 3588 3229 1 
3895 3589 3588 1 
3896 3589 3602 1 
3897 3590 3593 1 
3898 3590 3588 1 
3899 3590 3600 1 
3900 3590 3601 1 
3901 3591 3589 1 
3902 3591 3598 1 
3903 3591 3599 1 
3904 3591 3593 1 
3905 3592 3589 1 
3906 3592 3228 1 
3907 3592 3594 2 
3908 3595 3593 1 
3909 3596 3593 1 
3910 3597 3596 2 
3911 3604 3603 2 
3912 3605 3604 1 
3913 3605 3618 1 
3914 3606 3605 1 
3915 3607 3605 1 
3916 3607 3616 1 
3917 3607 3617 1 
3918 3608 3606 1 
3919 3608 3614 1 
3920 3608 3615 1 
3921 3609 3607 1 
3922 3609 3608 1 
3923 3610 3609 1 
3924 3611 3609 1 
3925 3611 3613 2 
3926 3612 3610 1 
3927 3619 3630 1 
3928 3620 3670 1 
3929 3620 3619 1 
3930 3620 3623 2 
3931 3621 3619 1 
3932 3621 3632 1 
3933 3621 3671 1 
3934 3622 3619 1 
3935 3622 3624 1 
3936 3622 3628 1 
3937 3622 3629 1 
3938 3625 3624 1 
3939 3625 3704 1 
3940 3626 3624 1 
3941 3627 3624 1 
3942 3631 3625 1 
3943 3633 3715 1 
3944 3634 3633 1 
3945 3634 3647 1 
3946 3635 3633 1 
3947 3635 3645 1 
3948 3635 3646 1 
3949 3636 3634 1 
3950 3636 3643 1 
3951 3636 3644 1 
3952 3637 3634 1 
3953 3637 3716 1 
3954 3638 3635 1 
3955 3638 3636 1 
3956 3639 3637 2 
3957 3640 3638 1 
3958 3641 3638 1 
3959 3642 3641 2 
3960 3649 3648 1 
3961 3649 3662 1 
3962 3650 3653 1 
3963 3650 3648 1 
3964 3650 3660 1 
3965 3650 3661 1 
3966 3651 3649 1 
3967 3651 3658 1 
3968 3651 3659 1 
3969 3651 3653 1 
3970 3652 3649 1 
3971 3652 3654 2 
3972 3655 3653 1 
3973 3655 3696 1 
3974 3655 3815 1 
3975 3656 3653 1 
3976 3656 3690 1 
3977 3657 3656 2 
3978 3664 3663 1 
3979 3664 3677 1 
3980 3665 3663 1 
3981 3665 3675 1 
3982 3665 3676 1 
3983 3666 3664 1 
3984 3666 3673 1 
3985 3666 3674 1 
3986 3667 3664 1 
3987 3668 3665 1 
3988 3668 3666 1 
3989 3669 3667 2 
3990 3670 3668 1 
3991 3671 3668 1 
3992 3672 3671 2 
3993 3678 3685 1 
3994 3678 3686 1 
3995 3678 3687 1 
3996 3679 3678 1 
3997 3679 3683 1 
3998 3679 3684 1 
3999 3680 3679 1 
4000 3681 3680 1 
4001 3682 3680 1 
4002 3688 3701 1 
4003 3688 3702 1 
4004 3689 3688 1 
4005 3689 3693 1 
4006 3690 3694 1 
4007 3690 3688 1 
4008 3691 3689 1 
4009 3691 3694 1 
4010 3691 3699 1 
4011 3691 3700 1 
4012 3692 3689 1 
4013 3692 3805 1 
4014 3692 3712 1 
4015 3693 3708 1 
4016 3695 3693 2 
4017 3696 3694 1 
4018 3697 3696 2 
4019 3698 3694 1 
4020 3704 3703 1 
4021 3705 3704 2 
4022 3706 3703 1 
4023 3707 3703 1 
4024 3709 3708 1 
4025 3709 3722 1 
4026 3710 3713 1 
4027 3710 3708 1 
4028 3710 3720 1 
4029 3710 3721 1 
4030 3711 3709 1 
4031 3711 3718 1 
4032 3711 3719 1 
4033 3711 3713 1 
4034 3712 3709 1 
4035 3712 3714 2 
4036 3715 3713 1 
4037 3716 3713 1 
4038 3716 3784 1 
4039 3717 3715 2 
4040 3724 3723 1 
4041 3725 3724 1 
4042 3726 3724 1 
4043 3727 3723 1 
4044 3728 3723 1 
4045 3729 3723 1 
4046 3731 3730 1 
4047 3731 3743 1 
4048 3731 3733 1 
4049 3731 3734 1 
4050 3732 3730 1 
4051 3732 3742 1 
4052 3732 3735 1 
4053 3732 3741 1 
4054 3735 3733 1 
4055 3736 3734 2 
4056 3737 3735 1 
4057 3737 3744 1 
4058 3738 3735 1 
4059 3739 3733 1 
4060 3740 3733 1 
4061 3745 3757 1 
4062 3745 3758 1 
4063 3746 3745 1 
4064 3746 3756 1 
4065 3747 3745 1 
4066 3748 3746 1 
4067 3748 3754 1 
4068 3748 3755 1 
4069 3749 3746 1 
4070 3749 3759 1 
4071 3750 3748 1 
4072 3750 3747 1 
4073 3750 3753 1 
4074 3751 3750 1 
4075 3752 3751 2 
4076 3760 3768 1 
4077 3760 3769 1 
4078 3761 3760 1 
4079 3761 3766 1 
4080 3761 3767 1 
4081 3762 3761 1 
4082 3762 3763 1 
4083 3762 3764 1 
4084 3762 3765 1 
4085 3770 3773 1 
4086 3770 3781 1 
4087 3771 3770 1 
4088 3771 3774 2 
4089 3772 3770 1 
4090 3772 3783 1 
4091 3775 3773 1 
4092 3776 3775 1 
4093 3777 3775 1 
4094 3778 3775 1 
4095 3779 3773 1 
4096 3780 3773 1 
4097 3782 3776 1 
4098 3784 3793 1 
4099 3785 3784 1 
4100 3786 3785 1 
4101 3787 3786 1 
4102 3788 3786 1 
4103 3789 3786 1 
4104 3790 3785 1 
4105 3791 3785 1 
4106 3792 3784 1 
4107 3794 3803 1 
4108 3795 3794 1 
4109 3796 3795 1 
4110 3797 3796 1 
4111 3798 3796 1 
4112 3799 3796 1 
4113 3800 3795 1 
4114 3801 3795 1 
4115 3802 3794 1 
4116 3804 3813 1 
4117 3805 3804 1 
4118 3806 3804 1 
4119 3807 3806 1 
4120 3808 3806 1 
4121 3809 3806 1 
4122 3810 3805 1 
4123 3811 3805 1 
4124 3812 3804 1 
4125 3814 3823 1 
4126 3815 3814 1 
4127 3816 3814 1 
4128 3817 3816 1 
4129 3818 3816 1 
4130 3819 3816 1 
4131 3820 3815 1 
4132 3821 3815 1 
4133 3822 3814 1 
4134 3825 3824 1 
4135 3826 3825 1 
4136 3827 3825 1 
4137 3828 3825 1 
4138 3829 3824 1 
4139 3830 3824 1 
4140 3831 3833 1 
4141 3831 3839 1 
4142 3831 3840 1 
4143 3832 3831 1 
4144 3832 3837 1 
4145 3832 3838 1 
4146 3834 3833 1 
4147 3835 3833 1 
4148 3836 3833 1 
4149 3841 3844 1 
4150 3841 3845 1 
4151 3842 3841 1 
4152 3842 3843 2 
4153 3847 3846 1 
4154 3848 3847 1 
4155 3849 3847 1 
4156 3850 3847 1 
4157 3851 3846 1 
4158 3852 3846 1 
4159 3853 3893 1 
4160 3854 3853 1 
4161 3854 3892 1 
4162 3855 3853 2 
4163 3856 3854 2 
4164 3857 3855 1 
4165 3857 3891 1 
4166 3858 3855 1 
4167 3858 3889 1 
4168 3858 3890 1 
4169 3859 3856 1 
4170 3859 4178 1 
4171 3860 3857 2 
4172 3860 3856 1 
4173 3860 3888 1 
4174 3861 3858 1 
4175 3861 3894 1 
4176 3861 3863 1 
4177 3862 3859 2 
4178 3864 3863 1 
4179 3864 3887 1 
4180 3865 3863 2 
4181 3866 3864 1 
4182 3866 3916 1 
4183 3867 3864 1 
4184 3867 3885 1 
4185 3867 3886 1 
4186 3868 3866 1 
4187 3868 3883 1 
4188 3868 3884 1 
4189 3869 3868 1 
4190 3869 3867 1 
4191 3870 3869 1 
4192 3870 4234 1 
4193 3871 3869 1 
4194 3871 3873 2 
4195 3871 4230 1 
4196 3872 3870 1 
4197 3872 3874 1 
4198 3872 3881 1 
4199 3872 3882 1 
4200 3875 3874 1 
4201 3876 3875 1 
4202 3877 3875 1 
4203 3878 3875 1 
4204 3879 3874 1 
4205 3880 3874 1 
4206 3895 3934 1 
4207 3895 3935 1 
4208 3896 3895 1 
4209 3896 4167 1 
4210 3897 3895 1 
4211 3897 3932 1 
4212 3897 3933 1 
4213 3898 3896 1 
4214 3899 3897 1 
4215 3899 3929 1 
4216 3899 3930 1 
4217 3899 3931 1 
4218 3900 3898 1 
4219 3900 3927 1 
4220 3900 3928 1 
4221 3900 3903 1 
4222 3901 3898 1 
4223 3901 3904 1 
4224 3901 3925 1 
4225 3901 3926 1 
4226 3902 3898 1 
4227 3902 3905 2 
4228 3902 4166 1 
4229 3903 3924 1 
4230 3904 3903 1 
4231 3904 4195 1 
4232 3906 3903 1 
4233 3907 3906 2 
4234 3908 3906 1 
4235 3908 3936 1 
4236 3909 3908 1 
4237 3909 3922 1 
4238 3909 3923 1 
4239 3910 3909 1 
4240 3911 3910 2 
4241 3911 3921 1 
4242 3911 3913 1 
4243 3912 3910 1 
4244 3912 3914 2 
4245 3912 3920 1 
4246 3915 3913 2 
4247 3915 3914 1 
4248 3916 3915 1 
4249 3917 3916 2 
4250 3918 3914 1 
4251 3919 3913 1 
4252 3937 4062 1 
4253 3937 4402 1 
4254 3938 3937 1 
4255 3939 3938 1 
4256 3939 3950 1 
4257 3939 3951 1 
4258 3940 3938 1 
4259 3940 3948 1 
4260 3940 3949 1 
4261 3940 3943 1 
4262 3941 3938 1 
4263 3941 3944 2 
4264 3941 4060 1 
4265 3942 3939 1 
4266 3942 3945 1 
4267 3942 3947 1 
4268 3942 3943 1 
4269 3943 4238 1 
4270 3945 4237 1 
4271 3946 3945 2 
4272 3952 3964 1 
4273 3952 3965 1 
4274 3952 3954 1 
4275 3952 3953 1 
4276 3953 3963 1 
4277 3955 3953 1 
4278 3955 4253 1 
4279 3956 3953 1 
4280 3956 4252 1 
4281 3957 3954 1 
4282 3957 3955 1 
4283 3958 3954 1 
4284 3958 3985 1 
4285 3958 3966 1 
4286 3959 3956 2 
4287 3960 3957 1 
4288 3961 3957 1 
4289 3962 3954 1 
4290 3967 3975 1 
4291 3967 3976 1 
4292 3967 4312 1 
4293 3968 3967 1 
4294 3968 3974 1 
4295 3968 3973 1 
4296 3969 3968 1 
4297 3970 3969 1 
4298 3971 3969 1 
4299 3972 3969 1 
4300 3977 3990 1 
4301 3977 3991 1 
4302 3978 3977 1 
4303 3979 3977 1 
4304 3979 3983 1 
4305 3979 4488 1 
4306 3980 3978 1 
4307 3980 3988 1 
4308 3980 3989 1 
4309 3980 3983 1 
4310 3981 3978 1 
4311 3981 4042 1 
4312 3981 4483 1 
4313 3982 3978 1 
4314 3982 4035 1 
4315 3982 3984 2 
4316 3985 3983 1 
4317 3986 3985 2 
4318 3987 3983 1 
4319 3992 3994 2 
4320 3992 3993 1 
4321 3992 4101 1 
4322 3995 3993 1 
4323 3995 4005 1 
4324 3995 4006 1 
4325 3996 3993 1 
4326 3996 4004 1 
4327 3996 4003 1 
4328 3997 3993 1 
4329 3997 4102 1 
4330 3997 4436 1 
4331 3998 3995 1 
4332 3999 3996 1 
4333 3999 3998 1 
4334 3999 4138 1 
4335 4000 3998 1 
4336 4000 4134 1 
4337 4001 4000 2 
4338 4002 3998 1 
4339 4007 4084 1 
4340 4008 4007 1 
4341 4008 4022 1 
4342 4009 4007 1 
4343 4009 4020 1 
4344 4009 4021 1 
4345 4010 4008 1 
4346 4010 4018 1 
4347 4010 4019 1 
4348 4011 4008 1 
4349 4011 4013 2 
4350 4011 4083 1 
4351 4012 4009 1 
4352 4012 4010 1 
4353 4012 4015 1 
4354 4012 4014 1 
4355 4014 4376 1 
4356 4015 4372 1 
4357 4016 4014 1 
4358 4017 4015 2 
4359 4024 4023 1 
4360 4025 4024 1 
4361 4025 4058 1 
4362 4026 4025 1 
4363 4027 4025 1 
4364 4028 4024 1 
4365 4029 4024 1 
4366 4030 4023 1 
4367 4031 4023 1 
4368 4032 4023 1 
4369 4033 4047 1 
4370 4033 4048 1 
4371 4034 4033 1 
4372 4035 4033 1 
4373 4036 4034 1 
4374 4036 4045 1 
4375 4036 4046 1 
4376 4037 4034 1 
4377 4037 4393 1 
4378 4038 4034 1 
4379 4038 4389 1 
4380 4039 4036 1 
4381 4039 4035 1 
4382 4039 4044 1 
4383 4040 4037 1 
4384 4041 4038 2 
4385 4042 4039 1 
4386 4042 4043 2 
4387 4049 4053 1 
4388 4049 4126 1 
4389 4050 4049 1 
4390 4050 4418 1 
4391 4051 4050 2 
4392 4052 4049 1 
4393 4055 4054 1 
4394 4055 4067 1 
4395 4055 4068 1 
4396 4056 4054 1 
4397 4056 4065 1 
4398 4056 4066 1 
4399 4057 4054 1 
4400 4057 4305 1 
4401 4058 4054 1 
4402 4058 4309 1 
4403 4059 4055 1 
4404 4059 4064 1 
4405 4060 4059 1 
4406 4060 4056 1 
4407 4061 4057 2 
4408 4062 4059 1 
4409 4062 4063 2 
4410 4069 4077 1 
4411 4069 4078 1 
4412 4069 4237 1 
4413 4070 4069 1 
4414 4070 4075 1 
4415 4070 4076 1 
4416 4071 4070 1 
4417 4071 4073 1 
4418 4071 4074 1 
4419 4072 4071 1 
4420 4079 4092 1 
4421 4079 4093 1 
4422 4080 4079 1 
4423 4080 4084 1 
4424 4080 4083 1 
4425 4081 4079 1 
4426 4081 4085 1 
4427 4081 4366 1 
4428 4082 4080 1 
4429 4082 4085 1 
4430 4082 4090 1 
4431 4082 4091 1 
4432 4083 4345 1 
4433 4086 4084 2 
4434 4087 4085 1 
4435 4087 4391 1 
4436 4088 4087 2 
4437 4089 4085 1 
4438 4094 4414 1 
4439 4095 4094 1 
4440 4096 4094 2 
4441 4097 4095 1 
4442 4097 4107 1 
4443 4097 4108 1 
4444 4098 4095 1 
4445 4098 4105 1 
4446 4098 4106 1 
4447 4099 4095 1 
4448 4099 4413 1 
4449 4099 4322 1 
4450 4100 4097 1 
4451 4100 4104 1 
4452 4101 4098 1 
4453 4101 4100 1 
4454 4102 4100 1 
4455 4102 4103 2 
4456 4109 4116 1 
4457 4109 4117 1 
4458 4109 4118 1 
4459 4110 4109 1 
4460 4110 4114 1 
4461 4110 4115 1 
4462 4111 4110 1 
4463 4111 4164 1 
4464 4111 4113 1 
4465 4112 4111 1 
4466 4119 4379 1 
4467 4120 4119 1 
4468 4120 4133 1 
4469 4120 4123 1 
4470 4121 4119 2 
4471 4122 4120 1 
4472 4122 4466 1 
4473 4122 4124 1 
4474 4125 4123 1 
4475 4125 4124 1 
4476 4126 4125 1 
4477 4126 4246 1 
4478 4127 4125 1 
4479 4127 4248 1 
4480 4128 4127 2 
4481 4129 4124 1 
4482 4130 4124 1 
4483 4131 4123 1 
4484 4132 4123 1 
4485 4134 4474 1 
4486 4135 4134 1 
4487 4136 4135 1 
4488 4136 4147 1 
4489 4136 4148 1 
4490 4137 4135 1 
4491 4137 4145 1 
4492 4137 4146 1 
4493 4138 4135 1 
4494 4139 4136 1 
4495 4139 4144 1 
4496 4140 4137 1 
4497 4140 4139 1 
4498 4140 4159 1 
4499 4141 4138 2 
4500 4142 4139 1 
4501 4142 4164 1 
4502 4142 4143 2 
4503 4149 4157 1 
4504 4149 4158 1 
4505 4149 4282 1 
4506 4150 4149 1 
4507 4150 4155 1 
4508 4150 4156 1 
4509 4151 4150 1 
4510 4151 4154 1 
4511 4151 4153 1 
4512 4152 4151 1 
4513 4160 4164 1 
4514 4160 4159 1 
4515 4160 4163 1 
4516 4161 4159 2 
4517 4162 4160 1 
4518 4162 4165 1 
4519 4162 4172 1 
4520 4162 4173 1 
4521 4166 4163 1 
4522 4166 4165 1 
4523 4167 4165 1 
4524 4168 4167 2 
4525 4169 4165 1 
4526 4170 4163 1 
4527 4171 4163 1 
4528 4175 4174 1 
4529 4175 4214 1 
4530 4176 4174 2 
4531 4177 4174 1 
4532 4177 4215 1 
4533 4178 4175 1 
4534 4179 4175 1 
4535 4179 4212 1 
4536 4179 4213 1 
4537 4180 4177 1 
4538 4180 4210 1 
4539 4180 4211 1 
4540 4180 4183 1 
4541 4181 4178 1 
4542 4181 4208 1 
4543 4181 4209 1 
4544 4182 4181 1 
4545 4182 4179 1 
4546 4182 4184 1 
4547 4182 4185 1 
4548 4184 4294 1 
4549 4185 4290 1 
4550 4186 4183 2 
4551 4186 4207 1 
4552 4187 4183 1 
4553 4187 4206 1 
4554 4188 4184 1 
4555 4188 4204 1 
4556 4188 4205 1 
4557 4189 4185 2 
4558 4190 4186 1 
4559 4190 4203 1 
4560 4190 4193 2 
4561 4191 4187 2 
4562 4191 4202 1 
4563 4191 4193 1 
4564 4192 4188 1 
4565 4192 4194 1 
4566 4192 4200 1 
4567 4192 4201 1 
4568 4195 4193 1 
4569 4196 4195 2 
4570 4197 4194 1 
4571 4198 4194 1 
4572 4199 4194 1 
4573 4216 4226 1 
4574 4216 4227 1 
4575 4217 4216 1 
4576 4217 4484 1 
4577 4217 4229 1 
4578 4218 4216 1 
4579 4218 4224 1 
4580 4218 4225 1 
4581 4219 4218 1 
4582 4219 4223 1 
4583 4220 4282 1 
4584 4220 4219 1 
4585 4221 4219 1 
4586 4221 4228 1 
4587 4221 4283 1 
4588 4222 4220 2 
4589 4231 4230 1 
4590 4231 4234 1 
4591 4231 4244 1 
4592 4231 4233 1 
4593 4232 4235 1 
4594 4232 4230 1 
4595 4232 4242 1 
4596 4232 4243 1 
4597 4235 4233 1 
4598 4236 4234 2 
4599 4237 4235 1 
4600 4238 4235 1 
4601 4239 4238 2 
4602 4240 4233 1 
4603 4241 4233 1 
4604 4246 4245 2 
4605 4247 4246 1 
4606 4247 4260 1 
4607 4248 4247 1 
4608 4249 4247 1 
4609 4249 4258 1 
4610 4249 4259 1 
4611 4250 4248 1 
4612 4250 4256 1 
4613 4250 4257 1 
4614 4251 4249 1 
4615 4251 4250 1 
4616 4251 4253 1 
4617 4252 4251 1 
4618 4252 4254 1 
4619 4255 4253 2 
4620 4261 4264 1 
4621 4261 4272 1 
4622 4261 4263 1 
4623 4262 4312 1 
4624 4262 4261 1 
4625 4262 4265 2 
4626 4263 4274 1 
4627 4263 4313 1 
4628 4266 4264 1 
4629 4267 4266 1 
4630 4267 4346 1 
4631 4267 4273 1 
4632 4268 4266 1 
4633 4269 4266 1 
4634 4270 4264 1 
4635 4271 4264 1 
4636 4275 4357 1 
4637 4276 4275 1 
4638 4276 4289 1 
4639 4277 4275 1 
4640 4277 4287 1 
4641 4277 4288 1 
4642 4278 4276 1 
4643 4278 4285 1 
4644 4278 4286 1 
4645 4279 4276 1 
4646 4279 4358 1 
4647 4280 4277 1 
4648 4280 4278 1 
4649 4280 4283 1 
4650 4281 4279 2 
4651 4282 4280 1 
4652 4284 4283 2 
4653 4291 4290 1 
4654 4291 4294 1 
4655 4291 4304 1 
4656 4291 4293 1 
4657 4292 4295 1 
4658 4292 4290 1 
4659 4292 4302 1 
4660 4292 4303 1 
4661 4295 4293 1 
4662 4296 4294 2 
4663 4297 4295 1 
4664 4297 4338 1 
4665 4297 4457 1 
4666 4298 4295 1 
4667 4298 4332 1 
4668 4299 4298 2 
4669 4300 4293 1 
4670 4301 4293 1 
4671 4306 4305 1 
4672 4306 4319 1 
4673 4307 4305 1 
4674 4307 4317 1 
4675 4307 4318 1 
4676 4308 4306 1 
4677 4308 4315 1 
4678 4308 4316 1 
4679 4309 4306 1 
4680 4310 4307 1 
4681 4310 4308 1 
4682 4310 4313 1 
4683 4311 4309 2 
4684 4312 4310 1 
4685 4314 4313 2 
4686 4320 4327 1 
4687 4320 4328 1 
4688 4320 4329 1 
4689 4321 4320 1 
4690 4321 4325 1 
4691 4321 4326 1 
4692 4322 4321 1 
4693 4322 4324 1 
4694 4322 4323 1 
4695 4330 4343 1 
4696 4330 4344 1 
4697 4331 4330 1 
4698 4331 4334 1 
4699 4331 4335 1 
4700 4331 4333 1 
4701 4332 4336 1 
4702 4332 4330 1 
4703 4334 4447 1 
4704 4334 4354 1 
4705 4335 4350 1 
4706 4336 4333 1 
4707 4337 4335 2 
4708 4338 4336 1 
4709 4339 4338 2 
4710 4340 4336 1 
4711 4341 4333 1 
4712 4342 4333 1 
4713 4346 4345 1 
4714 4347 4346 2 
4715 4348 4345 1 
4716 4349 4345 1 
4717 4351 4350 1 
4718 4351 4364 1 
4719 4351 4354 1 
4720 4351 4353 1 
4721 4352 4355 1 
4722 4352 4350 1 
4723 4352 4362 1 
4724 4352 4363 1 
4725 4355 4353 1 
4726 4356 4354 2 
4727 4357 4355 1 
4728 4358 4355 1 
4729 4358 4426 1 
4730 4359 4357 2 
4731 4360 4353 1 
4732 4361 4353 1 
4733 4366 4365 1 
4734 4367 4366 1 
4735 4368 4366 1 
4736 4369 4365 1 
4737 4370 4365 1 
4738 4371 4365 1 
4739 4372 4374 1 
4740 4372 4373 1 
4741 4373 4385 1 
4742 4374 4384 1 
4743 4374 4383 1 
4744 4375 4373 1 
4745 4376 4373 1 
4746 4377 4374 1 
4747 4377 4375 1 
4748 4378 4376 2 
4749 4379 4377 1 
4750 4379 4386 1 
4751 4380 4377 1 
4752 4381 4375 1 
4753 4382 4375 1 
4754 4387 4399 1 
4755 4387 4400 1 
4756 4388 4387 1 
4757 4388 4398 1 
4758 4389 4387 1 
4759 4390 4388 1 
4760 4390 4396 1 
4761 4390 4397 1 
4762 4391 4388 1 
4763 4391 4401 1 
4764 4392 4390 1 
4765 4392 4389 1 
4766 4392 4395 1 
4767 4392 4393 1 
4768 4394 4393 2 
4769 4402 4410 1 
4770 4402 4411 1 
4771 4402 4403 1 
4772 4404 4403 1 
4773 4405 4404 1 
4774 4406 4404 1 
4775 4407 4404 1 
4776 4408 4403 1 
4777 4409 4403 1 
4778 4412 4415 1 
4779 4412 4414 1 
4780 4412 4423 1 
4781 4412 4413 1 
4782 4414 4425 1 
4783 4416 4413 2 
4784 4417 4415 1 
4785 4418 4417 1 
4786 4418 4424 1 
4787 4419 4417 1 
4788 4420 4417 1 
4789 4421 4415 1 
4790 4422 4415 1 
4791 4426 4434 1 
4792 4426 4435 1 
4793 4427 4426 1 
4794 4427 4433 1 
4795 4428 4427 1 
4796 4429 4428 1 
4797 4430 4428 1 
4798 4431 4428 1 
4799 4432 4427 1 
4800 4436 4444 1 
4801 4436 4445 1 
4802 4437 4436 1 
4803 4437 4443 1 
4804 4438 4437 1 
4805 4439 4438 1 
4806 4440 4438 1 
4807 4441 4438 1 
4808 4442 4437 1 
4809 4446 4454 1 
4810 4446 4455 1 
4811 4447 4446 1 
4812 4447 4453 1 
4813 4448 4446 1 
4814 4449 4448 1 
4815 4450 4448 1 
4816 4451 4448 1 
4817 4452 4447 1 
4818 4456 4464 1 
4819 4456 4465 1 
4820 4457 4456 1 
4821 4457 4463 1 
4822 4458 4456 1 
4823 4459 4458 1 
4824 4460 4458 1 
4825 4461 4458 1 
4826 4462 4457 1 
4827 4467 4466 1 
4828 4468 4467 1 
4829 4469 4467 1 
4830 4470 4467 1 
4831 4471 4466 1 
4832 4472 4466 1 
4833 4474 4473 1 
4834 4475 4473 1 
4835 4476 4475 1 
4836 4477 4475 1 
4837 4478 4475 1 
4838 4479 4474 1 
4839 4480 4474 1 
4840 4481 4473 1 
4841 4482 4473 1 
4842 4484 4483 1 
4843 4485 4484 2 
4844 4486 4483 1 
4845 4487 4483 1 
4846 4488 4494 1 
4847 4488 4493 1 
4848 4489 4488 1 
4849 4490 4489 1 
4850 4491 4489 1 
4851 4492 4489 1 
4852 4496 4495 1 
4853 4497 4495 2 
4854 4498 4496 2 
4855 4499 4497 1 
4856 4500 4497 1 
4857 4501 4498 1 
4858 4502 4499 2 
4859 4502 4498 1 
4860 4503 4500 1 
4861 4503 4536 1 
4862 4504 4501 2 
4863 4505 4503 1 
4864 4506 4505 1 
4865 4506 4529 1 
4866 4507 4505 2 
4867 4508 4506 1 
4868 4508 4558 1 
4869 4509 4506 1 
4870 4509 4527 1 
4871 4509 4528 1 
4872 4510 4508 1 
4873 4510 4525 1 
4874 4510 4526 1 
4875 4511 4510 1 
4876 4511 4509 1 
4877 4511 4513 1 
4878 4512 4511 1 
4879 4512 4514 1 
4880 4514 4523 1 
4881 4514 4524 1 
4882 4515 4513 2 
4883 4516 4514 1 
4884 4517 4516 1 
4885 4518 4517 1 
4886 4519 4517 1 
4887 4520 4517 1 
4888 4521 4516 1 
4889 4522 4516 1 
4890 4530 4502 1 
4891 4531 4500 1 
4892 4532 4500 1 
4893 4533 4499 1 
4894 4534 4496 1 
4895 4535 4495 1 
4896 4537 4576 1 
4897 4537 4577 1 
4898 4538 4537 1 
4899 4539 4537 1 
4900 4539 4574 1 
4901 4539 4575 1 
4902 4540 4538 1 
4903 4540 4543 1 
4904 4540 4544 1 
4905 4541 4539 1 
4906 4541 4571 1 
4907 4541 4572 1 
4908 4541 4573 1 
4909 4542 4540 1 
4910 4542 4569 1 
4911 4542 4570 1 
4912 4542 4545 1 
4913 4543 4567 1 
4914 4543 4568 1 
4915 4545 4566 1 
4916 4546 4543 1 
4917 4546 4545 1 
4918 4547 4544 2 
4919 4548 4545 1 
4920 4549 4548 2 
4921 4550 4548 1 
4922 4550 4578 1 
4923 4551 4550 1 
4924 4551 4564 1 
4925 4551 4565 1 
4926 4552 4551 1 
4927 4552 4553 2 
4928 4552 4554 1 
4929 4553 4563 1 
4930 4555 4553 1 
4931 4556 4554 2 
4932 4557 4555 2 
4933 4557 4556 1 
4934 4558 4557 1 
4935 4559 4558 2 
4936 4560 4556 1 
4937 4561 4555 1 
4938 4562 4554 1 
4939 4579 5044 1 
4940 4580 4579 1 
4941 4580 4583 1 
4942 4581 4580 1 
4943 4581 4592 1 
4944 4581 4584 1 
4945 4582 4580 1 
4946 4582 4590 1 
4947 4582 4591 1 
4948 4582 4585 1 
4949 4585 4584 1 
4950 4586 4583 2 
4951 4587 4584 1 
4952 4588 4587 2 
4953 4589 4584 1 
4954 4593 4581 1 
4955 4594 4606 1 
4956 4594 4607 1 
4957 4595 4594 1 
4958 4595 4605 1 
4959 4596 4594 1 
4960 4596 4604 1 
4961 4597 4595 1 
4962 4597 4895 1 
4963 4598 4595 1 
4964 4598 4894 1 
4965 4599 4596 1 
4966 4599 4597 1 
4967 4599 4603 1 
4968 4600 4596 1 
4969 4600 4627 1 
4970 4600 4608 1 
4971 4601 4598 2 
4972 4602 4599 1 
4973 4609 4617 1 
4974 4609 4618 1 
4975 4609 4954 1 
4976 4610 4609 1 
4977 4610 4616 1 
4978 4610 4615 1 
4979 4611 4610 1 
4980 4611 4613 1 
4981 4611 4614 1 
4982 4612 4611 1 
4983 4619 4632 1 
4984 4619 4633 1 
4985 4620 4619 1 
4986 4620 4623 1 
4987 4620 4624 1 
4988 4621 4619 1 
4989 4621 4625 1 
4990 4621 5130 1 
4991 4622 4620 1 
4992 4622 4630 1 
4993 4622 4631 1 
4994 4622 4625 1 
4995 4623 4684 1 
4996 4623 5125 1 
4997 4624 4677 1 
4998 4626 4624 2 
4999 4627 4625 1 
5000 4628 4627 2 
5001 4629 4625 1 
5002 4634 4743 1 
5003 4635 4634 1 
5004 4636 4634 2 
5005 4637 4635 1 
5006 4637 4647 1 
5007 4637 4648 1 
5008 4638 4635 1 
5009 4638 4646 1 
5010 4638 4645 1 
5011 4639 4635 1 
5012 4639 4744 1 
5013 4639 5078 1 
5014 4640 4637 1 
5015 4640 4644 1 
5016 4641 4638 1 
5017 4641 4640 1 
5018 4641 4780 1 
5019 4642 4640 1 
5020 4642 4643 2 
5021 4642 4776 1 
5022 4649 4726 1 
5023 4650 4649 1 
5024 4650 4664 1 
5025 4650 4653 1 
5026 4651 4649 1 
5027 4651 4662 1 
5028 4651 4663 1 
5029 4651 4654 1 
5030 4652 4650 1 
5031 4652 4660 1 
5032 4652 4661 1 
5033 4652 4654 1 
5034 4653 4725 1 
5035 4655 4653 2 
5036 4656 4654 1 
5037 4656 5018 1 
5038 4657 4654 1 
5039 4657 5014 1 
5040 4658 4656 1 
5041 4659 4657 2 
5042 4665 4673 1 
5043 4665 4674 1 
5044 4666 4665 1 
5045 4667 4666 1 
5046 4667 4700 1 
5047 4668 4667 1 
5048 4669 4667 1 
5049 4670 4666 1 
5050 4671 4666 1 
5051 4672 4665 1 
5052 4675 4689 1 
5053 4675 4690 1 
5054 4676 4675 1 
5055 4677 4675 1 
5056 4678 4676 1 
5057 4678 4687 1 
5058 4678 4688 1 
5059 4679 4676 1 
5060 4679 5035 1 
5061 4680 4676 1 
5062 4680 4683 2 
5063 4680 5031 1 
5064 4681 4678 1 
5065 4681 4677 1 
5066 4681 4686 1 
5067 4681 4684 1 
5068 4682 4679 1 
5069 4685 4684 2 
5070 4691 4694 1 
5071 4691 4695 1 
5072 4691 4768 1 
5073 4692 4691 1 
5074 4692 4693 2 
5075 4692 5060 1 
5076 4697 4696 1 
5077 4697 4709 1 
5078 4697 4710 1 
5079 4698 4696 1 
5080 4698 4707 1 
5081 4698 4708 1 
5082 4699 4696 1 
5083 4699 4703 2 
5084 4699 4947 1 
5085 4700 4696 1 
5086 4700 4951 1 
5087 4701 4697 1 
5088 4701 4706 1 
5089 4701 4704 1 
5090 4702 4583 1 
5091 4702 4701 1 
5092 4702 4698 1 
5093 4704 4579 1 
5094 4705 4704 2 
5095 4711 4719 1 
5096 4711 4720 1 
5097 4711 4879 1 
5098 4712 4711 1 
5099 4712 4713 1 
5100 4712 4717 1 
5101 4712 4718 1 
5102 4714 4713 1 
5103 4715 4713 1 
5104 4716 4713 1 
5105 4721 4734 1 
5106 4721 4735 1 
5107 4721 4723 1 
5108 4722 4721 1 
5109 4722 4726 1 
5110 4722 4724 1 
5111 4722 4725 1 
5112 4723 5008 1 
5113 4724 4733 1 
5114 4725 4987 1 
5115 4727 4723 1 
5116 4727 4724 1 
5117 4728 4726 2 
5118 4729 4727 1 
5119 4729 5033 1 
5120 4730 4729 2 
5121 4731 4727 1 
5122 4732 4724 1 
5123 4736 5056 1 
5124 4737 4736 1 
5125 4738 4736 2 
5126 4739 4737 1 
5127 4739 4749 1 
5128 4739 4750 1 
5129 4740 4737 1 
5130 4740 4747 1 
5131 4740 4748 1 
5132 4740 4743 1 
5133 4741 4737 1 
5134 4741 5055 1 
5135 4741 4964 1 
5136 4742 4739 1 
5137 4742 4746 1 
5138 4742 4743 1 
5139 4742 4744 1 
5140 4745 4744 2 
5141 4751 4758 1 
5142 4751 4759 1 
5143 4751 4760 1 
5144 4752 4751 1 
5145 4752 4756 1 
5146 4752 4757 1 
5147 4752 4753 1 
5148 4753 4806 1 
5149 4754 4753 1 
5150 4755 4753 1 
5151 4761 5021 1 
5152 4761 4763 2 
5153 4762 4761 1 
5154 4762 4775 1 
5155 4762 4764 1 
5156 4762 4765 1 
5157 4764 5108 1 
5158 4765 4773 1 
5159 4765 4774 1 
5160 4766 4764 1 
5161 4767 4765 1 
5162 4767 4766 1 
5163 4768 4767 1 
5164 4768 4888 1 
5165 4769 4767 1 
5166 4769 4890 1 
5167 4770 4769 2 
5168 4771 4766 1 
5169 4772 4766 1 
5170 4776 5116 1 
5171 4777 4776 1 
5172 4778 4777 1 
5173 4778 4789 1 
5174 4778 4790 1 
5175 4779 4777 1 
5176 4779 4787 1 
5177 4779 4788 1 
5178 4780 4777 1 
5179 4780 4783 2 
5180 4781 4778 1 
5181 4781 4786 1 
5182 4781 4784 1 
5183 4782 4779 1 
5184 4782 4781 1 
5185 4782 4801 1 
5186 4784 4806 1 
5187 4785 4784 2 
5188 4791 4799 1 
5189 4791 4800 1 
5190 4791 4924 1 
5191 4792 4791 1 
5192 4792 4797 1 
5193 4792 4798 1 
5194 4792 4793 1 
5195 4794 4793 1 
5196 4795 4793 1 
5197 4796 4793 1 
5198 4801 4803 2 
5199 4802 4806 1 
5200 4802 4801 1 
5201 4802 4804 1 
5202 4802 4805 1 
5203 4804 4814 1 
5204 4804 4815 1 
5205 4805 4813 1 
5206 4807 4804 1 
5207 4808 4805 1 
5208 4808 4807 1 
5209 4808 4544 1 
5210 4809 4807 1 
5211 4809 4538 1 
5212 4810 4809 2 
5213 4811 4807 1 
5214 4812 4805 1 
5215 4817 4816 1 
5216 4817 4856 1 
5217 4818 4816 2 
5218 4819 4816 1 
5219 4819 4857 1 
5220 4820 4817 1 
5221 4820 4501 1 
5222 4820 4823 1 
5223 4821 4817 1 
5224 4821 4854 1 
5225 4821 4855 1 
5226 4821 4824 1 
5227 4822 4819 1 
5228 4822 4852 1 
5229 4822 4853 1 
5230 4822 4825 1 
5231 4823 4850 1 
5232 4823 4851 1 
5233 4824 4823 1 
5234 4826 4824 1 
5235 4826 4936 1 
5236 4827 4824 1 
5237 4827 4932 1 
5238 4828 4825 2 
5239 4828 4849 1 
5240 4829 4825 1 
5241 4829 4848 1 
5242 4829 4833 2 
5243 4830 4826 1 
5244 4830 4846 1 
5245 4830 4847 1 
5246 4830 4834 1 
5247 4831 4827 2 
5248 4832 4828 1 
5249 4832 4845 1 
5250 4832 4835 2 
5251 4833 4844 1 
5252 4834 4843 1 
5253 4835 4833 1 
5254 4836 4834 1 
5255 4837 4835 1 
5256 4837 4546 1 
5257 4838 4837 2 
5258 4839 4836 1 
5259 4840 4836 1 
5260 4841 4836 1 
5261 4842 4834 1 
5262 4858 4868 1 
5263 4858 4869 1 
5264 4859 4858 1 
5265 4859 5126 1 
5266 4859 4871 1 
5267 4860 4858 1 
5268 4860 4866 1 
5269 4860 4867 1 
5270 4861 4860 1 
5271 4861 4863 1 
5272 4861 4865 1 
5273 4862 4924 1 
5274 4862 4861 1 
5275 4862 4864 2 
5276 4863 4925 1 
5277 4870 4863 1 
5278 4872 4513 1 
5279 4872 4873 1 
5280 4872 4874 1 
5281 4873 4886 1 
5282 4874 4884 1 
5283 4874 4885 1 
5284 4875 4873 1 
5285 4875 4883 1 
5286 4876 4873 1 
5287 4876 4512 1 
5288 4877 4874 1 
5289 4877 4875 1 
5290 4878 4876 2 
5291 4879 4877 1 
5292 4879 4587 1 
5293 4880 4877 1 
5294 4880 4585 1 
5295 4881 4880 2 
5296 4882 4875 1 
5297 4888 4887 2 
5298 4889 4888 1 
5299 4889 4902 1 
5300 4890 4889 1 
5301 4891 4889 1 
5302 4891 4900 1 
5303 4891 4901 1 
5304 4891 4893 1 
5305 4892 4890 1 
5306 4892 4898 1 
5307 4892 4899 1 
5308 4892 4893 1 
5309 4894 4893 1 
5310 4895 4893 1 
5311 4896 4894 1 
5312 4897 4895 2 
5313 4903 4914 1 
5314 4904 4954 1 
5315 4904 4903 1 
5316 4905 4903 1 
5317 4905 4916 1 
5318 4905 4955 1 
5319 4906 4903 1 
5320 4906 4913 1 
5321 4907 4904 2 
5322 4908 4906 1 
5323 4909 4908 1 
5324 4909 4988 1 
5325 4909 4915 1 
5326 4910 4908 1 
5327 4911 4908 1 
5328 4912 4906 1 
5329 4917 4999 1 
5330 4918 4917 1 
5331 4918 4931 1 
5332 4919 4917 1 
5333 4919 4929 1 
5334 4919 4930 1 
5335 4920 4918 1 
5336 4920 4927 1 
5337 4920 4928 1 
5338 4921 4918 1 
5339 4921 5000 1 
5340 4921 4923 2 
5341 4922 4919 1 
5342 4922 4920 1 
5343 4922 4924 1 
5344 4922 4925 1 
5345 4926 4925 2 
5346 4932 4933 1 
5347 4932 4934 1 
5348 4933 4946 1 
5349 4934 4944 1 
5350 4934 4945 1 
5351 4935 4933 1 
5352 4935 4943 1 
5353 4936 4933 1 
5354 4937 4934 1 
5355 4937 4935 1 
5356 4938 4936 2 
5357 4939 4937 1 
5358 4939 4980 1 
5359 4939 5099 1 
5360 4940 4937 1 
5361 4940 4974 1 
5362 4941 4940 2 
5363 4942 4935 1 
5364 4948 4947 1 
5365 4948 4961 1 
5366 4949 4947 1 
5367 4949 4959 1 
5368 4949 4960 1 
5369 4950 4948 1 
5370 4950 4957 1 
5371 4950 4958 1 
5372 4951 4948 1 
5373 4951 4953 2 
5374 4952 4949 1 
5375 4952 4950 1 
5376 4952 4954 1 
5377 4952 4955 1 
5378 4956 4955 2 
5379 4962 4969 1 
5380 4962 4970 1 
5381 4962 4971 1 
5382 4962 4963 1 
5383 4964 4963 1 
5384 4965 4964 1 
5385 4966 4964 1 
5386 4967 4963 1 
5387 4968 4963 1 
5388 4972 4985 1 
5389 4972 4986 1 
5390 4972 4973 1 
5391 4972 4974 1 
5392 4975 4973 1 
5393 4975 4983 1 
5394 4975 4984 1 
5395 4976 4973 1 
5396 4976 5089 1 
5397 4976 4996 1 
5398 4977 4973 1 
5399 4977 4992 1 
5400 4978 4974 1 
5401 4978 4975 1 
5402 4979 4977 2 
5403 4980 4978 1 
5404 4981 4980 2 
5405 4982 4978 1 
5406 4988 4987 1 
5407 4989 4988 2 
5408 4990 4987 1 
5409 4991 4987 1 
5410 4992 4993 1 
5411 4992 4994 1 
5412 4993 5006 1 
5413 4994 5004 1 
5414 4994 5005 1 
5415 4995 4993 1 
5416 4995 5003 1 
5417 4996 4993 1 
5418 4997 4994 1 
5419 4997 4995 1 
5420 4998 4996 2 
5421 4999 4997 1 
5422 5000 4997 1 
5423 5000 5068 1 
5424 5001 4999 2 
5425 5002 4995 1 
5426 5007 5013 1 
5427 5008 5007 1 
5428 5009 5008 1 
5429 5010 5008 1 
5430 5011 5007 1 
5431 5012 5007 1 
5432 5015 5014 1 
5433 5015 5027 1 
5434 5016 5014 1 
5435 5016 5026 1 
5436 5016 5025 1 
5437 5017 5015 1 
5438 5017 5023 1 
5439 5017 5024 1 
5440 5018 5015 1 
5441 5019 5016 1 
5442 5019 5017 1 
5443 5020 5018 2 
5444 5021 5019 1 
5445 5021 5028 1 
5446 5022 5019 1 
5447 5029 5041 1 
5448 5029 5042 1 
5449 5030 5029 1 
5450 5030 5040 1 
5451 5030 5033 1 
5452 5031 5029 1 
5453 5031 5034 1 
5454 5032 5030 1 
5455 5032 5038 1 
5456 5032 5039 1 
5457 5032 5034 1 
5458 5033 5043 1 
5459 5035 5034 1 
5460 5036 5035 2 
5461 5037 5034 1 
5462 5044 5053 1 
5463 5045 5044 1 
5464 5046 5045 1 
5465 5047 5046 1 
5466 5048 5046 1 
5467 5049 5046 1 
5468 5050 5045 1 
5469 5051 5045 1 
5470 5052 5044 1 
5471 5054 5065 1 
5472 5055 5054 1 
5473 5056 5054 1 
5474 5056 5067 1 
5475 5057 5054 1 
5476 5057 5063 1 
5477 5057 5064 1 
5478 5058 5055 2 
5479 5059 5057 1 
5480 5060 5059 1 
5481 5060 5066 1 
5482 5061 5059 1 
5483 5062 5059 1 
5484 5068 5076 1 
5485 5068 5077 1 
5486 5069 5068 1 
5487 5069 5074 1 
5488 5069 5075 1 
5489 5070 5069 1 
5490 5070 5073 1 
5491 5071 5070 1 
5492 5072 5070 1 
5493 5078 5086 1 
5494 5078 5087 1 
5495 5079 5078 1 
5496 5079 5084 1 
5497 5079 5085 1 
5498 5080 5079 1 
5499 5080 5083 1 
5500 5081 5080 1 
5501 5082 5080 1 
5502 5088 5096 1 
5503 5088 5097 1 
5504 5089 5088 1 
5505 5089 5094 1 
5506 5089 5095 1 
5507 5090 5088 1 
5508 5090 5093 1 
5509 5091 5090 1 
5510 5092 5090 1 
5511 5098 5106 1 
5512 5098 5107 1 
5513 5099 5098 1 
5514 5099 5104 1 
5515 5099 5105 1 
5516 5100 5098 1 
5517 5100 5103 1 
5518 5101 5100 1 
5519 5102 5100 1 
5520 5108 5113 1 
5521 5108 5114 1 
5522 5109 5108 1 
5523 5110 5109 1 
5524 5111 5109 1 
5525 5112 5109 1 
5526 5115 5123 1 
5527 5115 5124 1 
5528 5116 5115 1 
5529 5117 5115 1 
5530 5118 5117 1 
5531 5119 5117 1 
5532 5120 5117 1 
5533 5121 5116 1 
5534 5122 5116 1 
5535 5126 5125 1 
5536 5127 5126 2 
5537 5128 5125 1 
5538 5129 5125 1 
5539 5130 5136 1 
5540 5130 5135 1 
5541 5131 5130 1 
5542 5131 5133 1 
5543 5131 5134 1 
5544 5132 5131 1 
5545 5138 5137 1 
5546 5139 5137 2 
5547 5140 5138 2 
5548 5141 5139 1 
5549 5142 5139 1 
5550 5143 5140 1 
5551 5144 5141 2 
5552 5144 5140 1 
5553 5144 5172 1 
5554 5145 5142 1 
5555 5145 5178 1 
5556 5146 5143 2 
5557 5147 5145 1 
5558 5148 5147 1 
5559 5148 5171 1 
5560 5149 5147 2 
5561 5150 5148 1 
5562 5150 5200 1 
5563 5151 5148 1 
5564 5151 5169 1 
5565 5151 5170 1 
5566 5151 5153 1 
5567 5152 5150 1 
5568 5152 5167 1 
5569 5152 5168 1 
5570 5152 5153 1 
5571 5154 5153 1 
5572 5155 5153 1 
5573 5156 5154 1 
5574 5156 5165 1 
5575 5156 5166 1 
5576 5157 5155 2 
5577 5158 5156 1 
5578 5158 5163 1 
5579 5158 5164 1 
5580 5159 5158 1 
5581 5160 5159 1 
5582 5161 5159 1 
5583 5162 5159 1 
5584 5173 5142 1 
5585 5174 5142 1 
5586 5175 5141 1 
5587 5176 5138 1 
5588 5177 5137 1 
5589 5179 5218 1 
5590 5179 5219 1 
5591 5180 5179 1 
5592 5181 5179 1 
5593 5181 5216 1 
5594 5181 5217 1 
5595 5181 5183 1 
5596 5182 5180 1 
5597 5182 5184 1 
5598 5182 5185 1 
5599 5182 5186 1 
5600 5183 5213 1 
5601 5183 5214 1 
5602 5183 5215 1 
5603 5184 5211 1 
5604 5184 5212 1 
5605 5185 5209 1 
5606 5185 5210 1 
5607 5187 5184 1 
5608 5187 5208 1 
5609 5188 5185 1 
5610 5188 5187 1 
5611 5189 5186 2 
5612 5190 5187 1 
5613 5191 5190 2 
5614 5192 5190 1 
5615 5192 5220 1 
5616 5192 5193 1 
5617 5193 5206 1 
5618 5193 5207 1 
5619 5194 5193 1 
5620 5195 5194 2 
5621 5195 5205 1 
5622 5196 5194 1 
5623 5196 5204 1 
5624 5197 5195 1 
5625 5197 5203 1 
5626 5198 5196 2 
5627 5199 5197 2 
5628 5199 5198 1 
5629 5200 5199 1 
5630 5201 5200 2 
5631 5202 5198 1 
5632 5222 5221 1 
5633 5222 5223 1 
5634 5222 5224 1 
5635 5222 5225 1 
5636 5223 5234 1 
5637 5223 5235 1 
5638 5224 5233 1 
5639 5226 5223 1 
5640 5227 5226 1 
5641 5227 5224 1 
5642 5228 5225 2 
5643 5229 5226 1 
5644 5230 5229 2 
5645 5231 5226 1 
5646 5232 5224 1 
5647 5236 5248 1 
5648 5236 5249 1 
5649 5237 5236 1 
5650 5237 5247 1 
5651 5238 5236 1 
5652 5238 5246 1 
5653 5239 5237 1 
5654 5240 5237 1 
5655 5240 5243 2 
5656 5241 5238 1 
5657 5241 5239 1 
5658 5241 5244 1 
5659 5241 5245 1 
5660 5242 5238 1 
5661 5242 5269 1 
5662 5242 5250 1 
5663 5251 5259 1 
5664 5251 5260 1 
5665 5252 5251 1 
5666 5252 5258 1 
5667 5252 5253 1 
5668 5252 5257 1 
5669 5254 5253 1 
5670 5255 5253 1 
5671 5256 5253 1 
5672 5261 5274 1 
5673 5261 5275 1 
5674 5261 5263 1 
5675 5262 5261 1 
5676 5262 5264 1 
5677 5262 5265 1 
5678 5262 5266 1 
5679 5264 5273 1 
5680 5265 5326 1 
5681 5266 5319 1 
5682 5267 5264 1 
5683 5267 5263 1 
5684 5268 5266 2 
5685 5269 5267 1 
5686 5270 5269 2 
5687 5271 5267 1 
5688 5272 5264 1 
5689 5277 5276 1 
5690 5278 5276 2 
5691 5279 5277 1 
5692 5279 5289 1 
5693 5279 5290 1 
5694 5280 5277 1 
5695 5280 5288 1 
5696 5280 5283 1 
5697 5280 5287 1 
5698 5281 5277 1 
5699 5282 5279 1 
5700 5282 5283 1 
5701 5282 5284 1 
5702 5282 5286 1 
5703 5285 5284 2 
5704 5291 5293 1 
5705 5292 5291 1 
5706 5292 5306 1 
5707 5292 5294 1 
5708 5292 5295 1 
5709 5293 5304 1 
5710 5293 5305 1 
5711 5294 5303 1 
5712 5296 5293 1 
5713 5296 5294 1 
5714 5297 5295 2 
5715 5298 5296 1 
5716 5299 5296 1 
5717 5300 5298 1 
5718 5301 5299 2 
5719 5302 5294 1 
5720 5307 5314 1 
5721 5307 5315 1 
5722 5307 5316 1 
5723 5308 5307 1 
5724 5308 5313 1 
5725 5309 5308 1 
5726 5309 5342 1 
5727 5310 5309 1 
5728 5311 5309 1 
5729 5312 5308 1 
5730 5317 5331 1 
5731 5317 5332 1 
5732 5318 5317 1 
5733 5319 5317 1 
5734 5319 5323 1 
5735 5320 5318 1 
5736 5320 5329 1 
5737 5320 5330 1 
5738 5320 5323 1 
5739 5321 5318 1 
5740 5321 5324 1 
5741 5322 5318 1 
5742 5322 5325 2 
5743 5326 5323 1 
5744 5327 5326 2 
5745 5328 5323 1 
5746 5334 5333 1 
5747 5335 5334 2 
5748 5336 5333 1 
5749 5337 5333 1 
5750 5339 5338 1 
5751 5340 5338 1 
5752 5341 5338 1 
5753 5342 5338 1 
5754 5343 5339 1 
5755 5344 5225 1 
5756 5344 5343 1 
5757 5344 5340 1 
5758 5345 5341 2 
5759 5346 5221 1 
5760 5346 5343 1 
5761 5347 5346 2 
5762 5348 5343 1 
5763 5349 5340 1 
5764 5350 5340 1 
5765 5351 5339 1 
5766 5352 5339 1 
5767 5353 5521 1 
5768 5354 5353 1 
5769 5355 5354 1 
5770 5356 5355 1 
5771 5357 5355 1 
5772 5358 5355 1 
5773 5359 5354 1 
5774 5360 5354 1 
5775 5361 5353 1 
5776 5362 5353 1 
5777 5363 5376 1 
5778 5363 5377 1 
5779 5364 5363 1 
5780 5365 5363 1 
5781 5365 5650 1 
5782 5366 5364 1 
5783 5366 5374 1 
5784 5366 5375 1 
5785 5367 5364 1 
5786 5367 5295 1 
5787 5367 5629 1 
5788 5368 5364 1 
5789 5368 5291 1 
5790 5369 5365 1 
5791 5369 5366 1 
5792 5369 5373 1 
5793 5370 5368 2 
5794 5371 5369 1 
5795 5371 5675 1 
5796 5372 5371 2 
5797 5379 5378 1 
5798 5379 5383 1 
5799 5380 5378 2 
5800 5381 5379 1 
5801 5381 5391 1 
5802 5381 5392 1 
5803 5381 5384 1 
5804 5382 5379 1 
5805 5382 5389 1 
5806 5382 5390 1 
5807 5382 5385 1 
5808 5383 5606 1 
5809 5385 5276 1 
5810 5385 5384 1 
5811 5386 5281 1 
5812 5386 5384 1 
5813 5387 5386 2 
5814 5388 5384 1 
5815 5394 5393 1 
5816 5395 5394 1 
5817 5395 5448 1 
5818 5396 5395 1 
5819 5397 5395 1 
5820 5398 5394 1 
5821 5399 5394 1 
5822 5400 5393 1 
5823 5401 5393 1 
5824 5402 5393 1 
5825 5403 5663 1 
5826 5404 5403 1 
5827 5404 5417 1 
5828 5405 5403 2 
5829 5406 5404 1 
5830 5407 5404 1 
5831 5407 5415 1 
5832 5407 5416 1 
5833 5408 5406 1 
5834 5408 5413 1 
5835 5408 5414 1 
5836 5409 5407 1 
5837 5409 5408 1 
5838 5410 5333 1 
5839 5410 5409 1 
5840 5410 5530 1 
5841 5411 5409 1 
5842 5411 5532 1 
5843 5412 5411 2 
5844 5418 5284 1 
5845 5419 5418 1 
5846 5420 5419 1 
5847 5420 5431 1 
5848 5420 5432 1 
5849 5420 5423 1 
5850 5421 5419 1 
5851 5421 5429 1 
5852 5421 5430 1 
5853 5421 5424 1 
5854 5422 5283 1 
5855 5422 5419 1 
5856 5422 5425 2 
5857 5424 5423 1 
5858 5424 5443 1 
5859 5426 5423 1 
5860 5426 5448 1 
5861 5427 5426 2 
5862 5428 5423 1 
5863 5433 5566 1 
5864 5434 5433 1 
5865 5435 5434 1 
5866 5436 5435 1 
5867 5437 5435 1 
5868 5438 5435 1 
5869 5439 5434 1 
5870 5440 5434 1 
5871 5441 5433 1 
5872 5442 5433 1 
5873 5444 5443 1 
5874 5445 5443 2 
5875 5446 5444 1 
5876 5446 5456 1 
5877 5446 5457 1 
5878 5447 5444 1 
5879 5447 5454 1 
5880 5447 5455 1 
5881 5448 5444 1 
5882 5449 5446 1 
5883 5449 5453 1 
5884 5450 5447 1 
5885 5450 5449 1 
5886 5450 5186 1 
5887 5451 5449 1 
5888 5451 5180 1 
5889 5452 5451 2 
5890 5459 5458 1 
5891 5459 5498 1 
5892 5459 5463 1 
5893 5460 5458 2 
5894 5461 5458 1 
5895 5461 5499 1 
5896 5461 5464 1 
5897 5462 5459 1 
5898 5462 5143 1 
5899 5462 5465 1 
5900 5463 5496 1 
5901 5463 5497 1 
5902 5464 5494 1 
5903 5464 5495 1 
5904 5465 5492 1 
5905 5465 5493 1 
5906 5466 5465 1 
5907 5466 5463 1 
5908 5467 5464 1 
5909 5468 5466 1 
5910 5468 5578 1 
5911 5469 5466 1 
5912 5469 5574 1 
5913 5469 5473 2 
5914 5470 5467 2 
5915 5470 5491 1 
5916 5470 5474 1 
5917 5471 5467 1 
5918 5471 5490 1 
5919 5471 5475 2 
5920 5472 5468 1 
5921 5472 5488 1 
5922 5472 5489 1 
5923 5472 5476 1 
5924 5474 5487 1 
5925 5475 5486 1 
5926 5476 5484 1 
5927 5476 5485 1 
5928 5477 5474 2 
5929 5477 5475 1 
5930 5478 5476 1 
5931 5478 5483 1 
5932 5479 5477 1 
5933 5479 5188 1 
5934 5480 5479 2 
5935 5481 5478 1 
5936 5482 5478 1 
5937 5500 5510 1 
5938 5500 5511 1 
5939 5501 5500 1 
5940 5501 5513 1 
5941 5502 5500 1 
5942 5502 5508 1 
5943 5502 5509 1 
5944 5502 5503 1 
5945 5504 5566 1 
5946 5504 5503 1 
5947 5505 5503 1 
5948 5505 5567 1 
5949 5506 5504 2 
5950 5507 5503 1 
5951 5512 5505 1 
5952 5514 5155 1 
5953 5515 5514 1 
5954 5515 5528 1 
5955 5516 5514 1 
5956 5516 5526 1 
5957 5516 5527 1 
5958 5517 5515 1 
5959 5517 5524 1 
5960 5517 5525 1 
5961 5518 5515 1 
5962 5518 5154 1 
5963 5519 5516 1 
5964 5519 5517 1 
5965 5520 5518 2 
5966 5521 5519 1 
5967 5521 5229 1 
5968 5522 5519 1 
5969 5522 5227 1 
5970 5522 5523 2 
5971 5530 5529 2 
5972 5531 5530 1 
5973 5531 5544 1 
5974 5531 5533 1 
5975 5532 5531 1 
5976 5532 5534 1 
5977 5533 5543 1 
5978 5535 5533 1 
5979 5535 5534 1 
5980 5536 5240 1 
5981 5536 5535 1 
5982 5537 5239 1 
5983 5537 5535 1 
5984 5538 5536 1 
5985 5539 5537 2 
5986 5540 5534 1 
5987 5541 5534 1 
5988 5542 5533 1 
5989 5545 5556 1 
5990 5546 5596 1 
5991 5546 5545 1 
5992 5547 5545 1 
5993 5547 5558 1 
5994 5547 5597 1 
5995 5548 5545 1 
5996 5548 5554 1 
5997 5548 5555 1 
5998 5549 5546 2 
5999 5550 5548 1 
6000 5550 5553 1 
6001 5551 5550 1 
6002 5551 5630 1 
6003 5551 5557 1 
6004 5552 5550 1 
6005 5559 5641 1 
6006 5560 5559 1 
6007 5560 5573 1 
6008 5560 5563 1 
6009 5561 5559 1 
6010 5561 5571 1 
6011 5561 5572 1 
6012 5561 5564 1 
6013 5562 5560 1 
6014 5562 5569 1 
6015 5562 5570 1 
6016 5562 5564 1 
6017 5563 5642 1 
6018 5565 5563 2 
6019 5566 5564 1 
6020 5567 5564 1 
6021 5568 5567 2 
6022 5575 5574 1 
6023 5575 5588 1 
6024 5576 5574 1 
6025 5576 5586 1 
6026 5576 5587 1 
6027 5577 5575 1 
6028 5577 5584 1 
6029 5577 5585 1 
6030 5578 5575 1 
6031 5579 5576 1 
6032 5579 5577 1 
6033 5580 5578 2 
6034 5581 5579 1 
6035 5581 5622 1 
6036 5582 5579 1 
6037 5582 5616 1 
6038 5582 5583 2 
6039 5589 5341 1 
6040 5590 5589 1 
6041 5590 5603 1 
6042 5590 5593 1 
6043 5591 5589 1 
6044 5591 5601 1 
6045 5591 5602 1 
6046 5591 5594 1 
6047 5592 5590 1 
6048 5592 5599 1 
6049 5592 5600 1 
6050 5592 5594 1 
6051 5593 5342 1 
6052 5595 5593 2 
6053 5596 5594 1 
6054 5596 5251 1 
6055 5597 5594 1 
6056 5598 5597 2 
6057 5604 5613 1 
6058 5605 5604 1 
6059 5606 5605 1 
6060 5607 5606 1 
6061 5608 5606 1 
6062 5609 5605 1 
6063 5610 5605 1 
6064 5611 5604 1 
6065 5612 5604 1 
6066 5614 5627 1 
6067 5614 5628 1 
6068 5615 5614 1 
6069 5616 5614 1 
6070 5617 5615 1 
6071 5617 5625 1 
6072 5617 5626 1 
6073 5618 5615 1 
6074 5618 5638 1 
6075 5619 5615 1 
6076 5619 5634 1 
6077 5620 5616 1 
6078 5620 5617 1 
6079 5620 5624 1 
6080 5621 5619 2 
6081 5622 5620 1 
6082 5622 5623 2 
6083 5629 5633 1 
6084 5630 5629 1 
6085 5631 5630 2 
6086 5632 5629 1 
6087 5635 5634 1 
6088 5635 5648 1 
6089 5636 5634 1 
6090 5636 5646 1 
6091 5636 5647 1 
6092 5637 5635 1 
6093 5637 5644 1 
6094 5637 5645 1 
6095 5638 5635 1 
6096 5639 5636 1 
6097 5639 5637 1 
6098 5640 5638 2 
6099 5641 5639 1 
6100 5641 5643 2 
6101 5642 5639 1 
6102 5649 5653 1 
6103 5649 5654 1 
6104 5649 5655 1 
6105 5650 5649 1 
6106 5651 5650 1 
6107 5652 5650 1 
6108 5656 5299 1 
6109 5657 5656 1 
6110 5657 5669 1 
6111 5658 5656 1 
6112 5658 5668 1 
6113 5658 5667 1 
6114 5659 5657 1 
6115 5659 5665 1 
6116 5659 5666 1 
6117 5660 5657 1 
6118 5660 5298 1 
6119 5661 5658 1 
6120 5661 5659 1 
6121 5661 5663 1 
6122 5661 5664 1 
6123 5662 5660 2 
6124 5670 5663 1 
6125 5671 5673 1 
6126 5672 5671 1 
6127 5672 5682 1 
6128 5672 5674 1 
6129 5672 5675 1 
6130 5673 5322 1 
6131 5676 5674 1 
6132 5676 5673 1 
6133 5677 5676 1 
6134 5677 5321 1 
6135 5678 5677 2 
6136 5679 5676 1 
6137 5680 5674 1 
6138 5681 5674 1 
6139 5683 5671 1 
6140 5684 5671 1 
6141 5685 5675 1 
6142 5686 5221 1 
6143 5686 5694 1 
6144 5686 5695 1 
6145 5687 5686 1 
6146 5687 5693 1 
6147 5688 5687 1 
6148 5689 5688 1 
6149 5690 5688 1 
6150 5691 5688 1 
6151 5692 5687 1 
6152 5696 5707 1 
6153 5697 5383 1 
6154 5697 5696 1 
6155 5698 5378 1 
6156 5698 5696 1 
6157 5698 5709 1 
6158 5699 5696 1 
6159 5699 5705 1 
6160 5699 5706 1 
6161 5700 5697 2 
6162 5701 5699 1 
6163 5701 5703 1 
6164 5701 5704 1 
6165 5702 5334 1 
6166 5702 5701 1 
6167 5702 5708 1 
6168 5710 5642 1 
6169 5710 5718 1 
6170 5710 5719 1 
6171 5711 5710 1 
6172 5711 5716 1 
6173 5711 5717 1 
6174 5712 5711 1 
6175 5712 5713 1 
6176 5712 5714 1 
6177 5712 5715 1 
6178 5720 5281 1 
6179 5720 5728 1 
6180 5720 5729 1 
6181 5721 5720 1 
6182 5721 5726 1 
6183 5721 5727 1 
6184 5722 5721 1 
6185 5722 5723 1 
6186 5722 5724 1 
6187 5722 5725 1 
6188 5730 5738 1 
6189 5730 5739 1 
6190 5731 5618 1 
6191 5731 5730 1 
6192 5731 5736 1 
6193 5731 5737 1 
6194 5732 5730 1 
6195 5732 5733 1 
6196 5732 5734 1 
6197 5732 5735 1 
6198 5740 5748 1 
6199 5740 5749 1 
6200 5741 5581 1 
6201 5741 5740 1 
6202 5741 5746 1 
6203 5741 5747 1 
6204 5742 5740 1 
6205 5742 5743 1 
6206 5742 5744 1 
6207 5742 5745 1 
6208 5750 5406 1 
6209 5750 5755 1 
6210 5750 5756 1 
6211 5751 5750 1 
6212 5751 5753 1 
6213 5751 5754 1 
6214 5752 5751 1 
6215 5757 5765 1 
6216 5757 5766 1 
6217 5758 5418 1 
6218 5758 5757 1 
6219 5758 5763 1 
6220 5758 5764 1 
6221 5759 5757 1 
6222 5760 5759 1 
6223 5761 5759 1 
6224 5762 5759 1 
6225 5767 5265 1 
6226 5768 5501 1 
6227 5768 5767 1 
6228 5769 5768 2 
6229 5770 5767 1 
6230 5771 5767 1 
6231 5772 5263 1 
6232 5772 5778 1 
6233 5772 5773 1 
6234 5772 5777 1 
6235 5774 5773 1 
6236 5775 5773 1 
6237 5776 5773 1 
6238 5779 5819 1 
6239 5780 5779 1 
6240 5780 5818 1 
6241 5781 5779 2 
6242 5781 5783 1 
6243 5781 5784 1 
6244 5782 5780 2 
6245 5782 5785 1 
6246 5782 5786 1 
6247 5783 5817 1 
6248 5784 5815 1 
6249 5784 5816 1 
6250 5785 6104 1 
6251 5786 5783 2 
6252 5786 5814 1 
6253 5787 5784 1 
6254 5787 5820 1 
6255 5788 5785 2 
6256 5789 5787 1 
6257 5790 5789 1 
6258 5790 5813 1 
6259 5790 5793 1 
6260 5791 5789 2 
6261 5792 5790 1 
6262 5792 5842 1 
6263 5792 5794 1 
6264 5793 5811 1 
6265 5793 5812 1 
6266 5794 5809 1 
6267 5794 5810 1 
6268 5795 5794 1 
6269 5795 5793 1 
6270 5796 5795 1 
6271 5796 6160 1 
6272 5797 5795 1 
6273 5797 6156 1 
6274 5798 5796 1 
6275 5798 5807 1 
6276 5798 5808 1 
6277 5799 5797 2 
6278 5800 5798 1 
6279 5800 5805 1 
6280 5800 5806 1 
6281 5801 5800 1 
6282 5801 5803 1 
6283 5801 5804 1 
6284 5802 5801 1 
6285 5821 5860 1 
6286 5821 5861 1 
6287 5821 5823 1 
6288 5822 5821 1 
6289 5822 5824 1 
6290 5822 6093 1 
6291 5823 5858 1 
6292 5823 5859 1 
6293 5825 5823 1 
6294 5825 5855 1 
6295 5825 5856 1 
6296 5825 5857 1 
6297 5826 5824 1 
6298 5826 5853 1 
6299 5826 5854 1 
6300 5827 5824 1 
6301 5827 5851 1 
6302 5827 5852 1 
6303 5828 5824 1 
6304 5828 6092 1 
6305 5829 5826 1 
6306 5829 5850 1 
6307 5830 5827 1 
6308 5830 5829 1 
6309 5830 6121 1 
6310 5831 5828 2 
6311 5832 5829 1 
6312 5832 5833 2 
6313 5832 5834 1 
6314 5834 5862 1 
6315 5835 5834 1 
6316 5835 5848 1 
6317 5835 5849 1 
6318 5836 5835 1 
6319 5837 5836 2 
6320 5837 5847 1 
6321 5838 5836 1 
6322 5838 5846 1 
6323 5839 5837 1 
6324 5839 5845 1 
6325 5840 5838 2 
6326 5840 5844 1 
6327 5841 5839 2 
6328 5841 5840 1 
6329 5842 5841 1 
6330 5842 5843 2 
6331 5863 5988 1 
6332 5863 6328 1 
6333 5864 5863 1 
6334 5865 5864 1 
6335 5865 5876 1 
6336 5865 5877 1 
6337 5866 5864 1 
6338 5866 5874 1 
6339 5866 5875 1 
6340 5867 5864 1 
6341 5867 5986 1 
6342 5868 5865 1 
6343 5868 5873 1 
6344 5869 5868 1 
6345 5869 5866 1 
6346 5869 6164 1 
6347 5870 5867 2 
6348 5871 5868 1 
6349 5871 6163 1 
6350 5872 5871 2 
6351 5878 5890 1 
6352 5878 5891 1 
6353 5879 5878 1 
6354 5879 5889 1 
6355 5880 5878 1 
6356 5880 5883 1 
6357 5880 5884 1 
6358 5880 5888 1 
6359 5881 5879 1 
6360 5881 5883 1 
6361 5881 6179 1 
6362 5882 5879 1 
6363 5882 5885 2 
6364 5882 6178 1 
6365 5884 5911 1 
6366 5886 5883 1 
6367 5887 5883 1 
6368 5892 5884 1 
6369 5893 6238 1 
6370 5894 5893 1 
6371 5895 5894 1 
6372 5896 5895 1 
6373 5897 5895 1 
6374 5898 5895 1 
6375 5899 5894 1 
6376 5900 5894 1 
6377 5901 5893 1 
6378 5902 5893 1 
6379 5903 5916 1 
6380 5903 5917 1 
6381 5904 5903 1 
6382 5905 5903 1 
6383 5905 6414 1 
6384 5906 5904 1 
6385 5906 5914 1 
6386 5906 5915 1 
6387 5907 5904 1 
6388 5907 5968 1 
6389 5907 6409 1 
6390 5908 5904 1 
6391 5908 5961 1 
6392 5909 5906 1 
6393 5909 5905 1 
6394 5909 5913 1 
6395 5910 5908 2 
6396 5911 5909 1 
6397 5912 5911 2 
6398 5918 6027 1 
6399 5919 5918 1 
6400 5919 5923 1 
6401 5920 5918 2 
6402 5921 5919 1 
6403 5921 5931 1 
6404 5921 5932 1 
6405 5921 5924 1 
6406 5922 5919 1 
6407 5922 5930 1 
6408 5922 5925 1 
6409 5922 5929 1 
6410 5923 6028 1 
6411 5923 6362 1 
6412 5925 5924 1 
6413 5925 6064 1 
6414 5926 5924 1 
6415 5926 6060 1 
6416 5927 5926 2 
6417 5928 5924 1 
6418 5933 6010 1 
6419 5934 5933 1 
6420 5934 5948 1 
6421 5935 5933 1 
6422 5935 5946 1 
6423 5935 5947 1 
6424 5936 5934 1 
6425 5936 5944 1 
6426 5936 5945 1 
6427 5937 5934 1 
6428 5937 6009 1 
6429 5938 5935 1 
6430 5938 5936 1 
6431 5939 5937 2 
6432 5940 5938 1 
6433 5940 6302 1 
6434 5941 5938 1 
6435 5941 5943 2 
6436 5941 6298 1 
6437 5942 5940 1 
6438 5949 5956 1 
6439 5949 5957 1 
6440 5949 5958 1 
6441 5950 5949 1 
6442 5950 5954 1 
6443 5950 5955 1 
6444 5951 5950 1 
6445 5951 5984 1 
6446 5951 5953 1 
6447 5952 5951 1 
6448 5959 5973 1 
6449 5959 5974 1 
6450 5960 5959 1 
6451 5960 5963 1 
6452 5960 5964 1 
6453 5961 5959 1 
6454 5961 5965 1 
6455 5962 5960 1 
6456 5962 5971 1 
6457 5962 5972 1 
6458 5962 5965 1 
6459 5963 6319 1 
6460 5964 6315 1 
6461 5966 5963 1 
6462 5967 5964 2 
6463 5968 5965 1 
6464 5969 5968 2 
6465 5970 5965 1 
6466 5975 6052 1 
6467 5976 5975 1 
6468 5976 6344 1 
6469 5977 5976 2 
6470 5978 5975 1 
6471 5979 5975 1 
6472 5980 5983 1 
6473 5980 5984 1 
6474 5981 5980 1 
6475 5981 5993 1 
6476 5981 5994 1 
6477 5981 5985 1 
6478 5982 5980 1 
6479 5982 5991 1 
6480 5982 5992 1 
6481 5982 5986 1 
6482 5983 6231 1 
6483 5984 6235 1 
6484 5986 5985 1 
6485 5987 5983 2 
6486 5988 5985 1 
6487 5989 5988 2 
6488 5990 5985 1 
6489 5995 6003 1 
6490 5995 6004 1 
6491 5995 6163 1 
6492 5996 5995 1 
6493 5997 5996 1 
6494 5998 5997 1 
6495 5999 5997 1 
6496 6000 5997 1 
6497 6001 5996 1 
6498 6002 5996 1 
6499 6005 6018 1 
6500 6005 6019 1 
6501 6006 6005 1 
6502 6007 6005 1 
6503 6007 6292 1 
6504 6008 6006 1 
6505 6008 6016 1 
6506 6008 6017 1 
6507 6009 6006 1 
6508 6009 6271 1 
6509 6010 6006 1 
6510 6011 6007 1 
6511 6011 6008 1 
6512 6011 6013 1 
6513 6011 6015 1 
6514 6012 6010 2 
6515 6013 6317 1 
6516 6014 6013 2 
6517 6020 6340 1 
6518 6021 6020 1 
6519 6021 6023 1 
6520 6021 6024 1 
6521 6021 6025 1 
6522 6022 6020 2 
6523 6023 6033 1 
6524 6023 6034 1 
6525 6025 6339 1 
6526 6025 6248 1 
6527 6026 6023 1 
6528 6027 6024 1 
6529 6027 6026 1 
6530 6028 6026 1 
6531 6029 6028 2 
6532 6030 6026 1 
6533 6031 6024 1 
6534 6032 6024 1 
6535 6035 6043 1 
6536 6035 6044 1 
6537 6036 6035 1 
6538 6037 6036 1 
6539 6037 6090 1 
6540 6038 6037 1 
6541 6039 6037 1 
6542 6040 6036 1 
6543 6041 6036 1 
6544 6042 6035 1 
6545 6045 6305 1 
6546 6046 6045 1 
6547 6046 6059 1 
6548 6047 6045 2 
6549 6048 6046 1 
6550 6048 6392 1 
6551 6049 6046 1 
6552 6049 6057 1 
6553 6049 6058 1 
6554 6050 6048 1 
6555 6050 6055 1 
6556 6050 6056 1 
6557 6051 6049 1 
6558 6051 6050 1 
6559 6051 6053 1 
6560 6052 6051 1 
6561 6052 6172 1 
6562 6053 6174 1 
6563 6054 6053 2 
6564 6060 6400 1 
6565 6061 6060 1 
6566 6061 6063 1 
6567 6061 6064 1 
6568 6062 6061 1 
6569 6062 6073 1 
6570 6062 6074 1 
6571 6062 6065 1 
6572 6066 6063 1 
6573 6066 6065 1 
6574 6066 6085 1 
6575 6067 6064 2 
6576 6068 6065 1 
6577 6068 6090 1 
6578 6069 6068 2 
6579 6070 6065 1 
6580 6071 6063 1 
6581 6072 6063 1 
6582 6075 6083 1 
6583 6075 6084 1 
6584 6075 6208 1 
6585 6076 6075 1 
6586 6077 6076 1 
6587 6078 6077 1 
6588 6079 6077 1 
6589 6080 6077 1 
6590 6081 6076 1 
6591 6082 6076 1 
6592 6086 6085 1 
6593 6087 6085 2 
6594 6088 6086 1 
6595 6088 6098 1 
6596 6088 6099 1 
6597 6089 6086 1 
6598 6089 6096 1 
6599 6089 6097 1 
6600 6090 6086 1 
6601 6091 6088 1 
6602 6091 6093 1 
6603 6091 6095 1 
6604 6092 6089 1 
6605 6092 6091 1 
6606 6094 6093 2 
6607 6100 6103 1 
6608 6101 6100 1 
6609 6101 6140 1 
6610 6101 6104 1 
6611 6101 6105 1 
6612 6102 6100 2 
6613 6103 6141 1 
6614 6105 6138 1 
6615 6105 6139 1 
6616 6106 6103 1 
6617 6106 6136 1 
6618 6106 6137 1 
6619 6107 6104 1 
6620 6107 6134 1 
6621 6107 6135 1 
6622 6108 6107 1 
6623 6108 6105 1 
6624 6109 6106 1 
6625 6109 6113 1 
6626 6110 6108 1 
6627 6110 6220 1 
6628 6110 6114 1 
6629 6111 6108 1 
6630 6111 6216 1 
6631 6111 6115 2 
6632 6112 6109 2 
6633 6112 6133 1 
6634 6112 6116 1 
6635 6113 6132 1 
6636 6114 6130 1 
6637 6114 6131 1 
6638 6116 6129 1 
6639 6117 6113 2 
6640 6117 6128 1 
6641 6118 6114 1 
6642 6118 6126 1 
6643 6118 6127 1 
6644 6119 6116 2 
6645 6119 6117 1 
6646 6120 6118 1 
6647 6120 6123 1 
6648 6120 6124 1 
6649 6120 6125 1 
6650 6121 6119 1 
6651 6122 6121 2 
6652 6142 6152 1 
6653 6142 6153 1 
6654 6142 6143 1 
6655 6142 6144 1 
6656 6143 6410 1 
6657 6143 6155 1 
6658 6145 6144 1 
6659 6146 6208 1 
6660 6146 6145 1 
6661 6147 6145 1 
6662 6147 6154 1 
6663 6147 6209 1 
6664 6148 6146 2 
6665 6149 6145 1 
6666 6150 6144 1 
6667 6151 6144 1 
6668 6157 6156 1 
6669 6157 6170 1 
6670 6158 6156 1 
6671 6158 6168 1 
6672 6158 6169 1 
6673 6159 6157 1 
6674 6159 6166 1 
6675 6159 6167 1 
6676 6160 6157 1 
6677 6161 6158 1 
6678 6161 6159 1 
6679 6161 6163 1 
6680 6161 6164 1 
6681 6162 6160 2 
6682 6165 6164 2 
6683 6172 6171 2 
6684 6172 6173 1 
6685 6173 6186 1 
6686 6174 6173 1 
6687 6175 6173 1 
6688 6175 6184 1 
6689 6175 6185 1 
6690 6176 6174 1 
6691 6176 6183 1 
6692 6177 6175 1 
6693 6177 6176 1 
6694 6178 6177 1 
6695 6179 6177 1 
6696 6180 6178 1 
6697 6181 6179 2 
6698 6182 6176 1 
6699 6187 6198 1 
6700 6188 6238 1 
6701 6188 6187 1 
6702 6189 6187 1 
6703 6189 6200 1 
6704 6189 6239 1 
6705 6190 6187 1 
6706 6190 6196 1 
6707 6190 6197 1 
6708 6191 6188 2 
6709 6192 6190 1 
6710 6192 6193 1 
6711 6192 6194 1 
6712 6192 6195 1 
6713 6193 6272 1 
6714 6199 6193 1 
6715 6201 6283 1 
6716 6201 6203 1 
6717 6202 6201 1 
6718 6202 6215 1 
6719 6202 6204 1 
6720 6202 6205 1 
6721 6203 6213 1 
6722 6203 6214 1 
6723 6205 6284 1 
6724 6206 6203 1 
6725 6206 6204 1 
6726 6207 6205 2 
6727 6208 6206 1 
6728 6209 6206 1 
6729 6210 6209 2 
6730 6211 6204 1 
6731 6212 6204 1 
6732 6217 6216 1 
6733 6217 6230 1 
6734 6218 6216 1 
6735 6218 6228 1 
6736 6218 6229 1 
6737 6219 6217 1 
6738 6219 6226 1 
6739 6219 6227 1 
6740 6220 6217 1 
6741 6221 6218 1 
6742 6221 6219 1 
6743 6221 6223 1 
6744 6221 6224 1 
6745 6222 6220 2 
6746 6223 6264 1 
6747 6223 6383 1 
6748 6224 6258 1 
6749 6225 6224 2 
6750 6231 6233 1 
6751 6232 6231 1 
6752 6232 6245 1 
6753 6232 6234 1 
6754 6232 6235 1 
6755 6233 6243 1 
6756 6233 6244 1 
6757 6236 6233 1 
6758 6236 6234 1 
6759 6237 6235 2 
6760 6238 6236 1 
6761 6239 6236 1 
6762 6240 6239 2 
6763 6241 6234 1 
6764 6242 6234 1 
6765 6246 6253 1 
6766 6246 6254 1 
6767 6246 6255 1 
6768 6247 6246 1 
6769 6248 6247 1 
6770 6249 6248 1 
6771 6250 6248 1 
6772 6251 6247 1 
6773 6252 6247 1 
6774 6256 6269 1 
6775 6256 6270 1 
6776 6257 6256 1 
6777 6258 6256 1 
6778 6259 6257 1 
6779 6259 6267 1 
6780 6259 6268 1 
6781 6260 6257 1 
6782 6260 6373 1 
6783 6260 6280 1 
6784 6261 6257 1 
6785 6261 6276 1 
6786 6261 6263 2 
6787 6262 6258 1 
6788 6262 6259 1 
6789 6262 6264 1 
6790 6262 6266 1 
6791 6265 6264 2 
6792 6271 6274 1 
6793 6271 6275 1 
6794 6272 6271 1 
6795 6272 6273 2 
6796 6277 6276 1 
6797 6277 6290 1 
6798 6278 6276 1 
6799 6278 6288 1 
6800 6278 6289 1 
6801 6279 6277 1 
6802 6279 6286 1 
6803 6279 6287 1 
6804 6280 6277 1 
6805 6281 6278 1 
6806 6281 6279 1 
6807 6281 6283 1 
6808 6281 6284 1 
6809 6282 6280 2 
6810 6284 6352 1 
6811 6285 6283 2 
6812 6291 6295 1 
6813 6291 6296 1 
6814 6291 6297 1 
6815 6292 6291 1 
6816 6292 6293 1 
6817 6292 6294 1 
6818 6299 6298 1 
6819 6299 6311 1 
6820 6300 6298 1 
6821 6300 6310 1 
6822 6300 6303 1 
6823 6300 6309 1 
6824 6301 6299 1 
6825 6301 6303 1 
6826 6301 6307 1 
6827 6301 6308 1 
6828 6302 6299 1 
6829 6302 6304 2 
6830 6305 6303 1 
6831 6306 6303 1 
6832 6312 6305 1 
6833 6313 6325 1 
6834 6313 6326 1 
6835 6314 6313 1 
6836 6314 6324 1 
6837 6315 6313 1 
6838 6316 6314 1 
6839 6316 6323 1 
6840 6317 6314 1 
6841 6317 6327 1 
6842 6318 6316 1 
6843 6318 6315 1 
6844 6319 6318 1 
6845 6320 6319 2 
6846 6321 6318 1 
6847 6322 6316 1 
6848 6328 6336 1 
6849 6328 6337 1 
6850 6329 6328 1 
6851 6329 6334 1 
6852 6329 6335 1 
6853 6330 6329 1 
6854 6330 6333 1 
6855 6331 6330 1 
6856 6332 6330 1 
6857 6338 6349 1 
6858 6339 6338 1 
6859 6340 6338 1 
6860 6340 6351 1 
6861 6341 6338 1 
6862 6341 6343 1 
6863 6341 6347 1 
6864 6341 6348 1 
6865 6342 6339 2 
6866 6344 6343 1 
6867 6345 6343 1 
6868 6346 6343 1 
6869 6350 6344 1 
6870 6352 6360 1 
6871 6352 6361 1 
6872 6352 6353 1 
6873 6354 6353 1 
6874 6355 6354 1 
6875 6356 6354 1 
6876 6357 6354 1 
6877 6358 6353 1 
6878 6359 6353 1 
6879 6362 6370 1 
6880 6362 6371 1 
6881 6362 6363 1 
6882 6364 6363 1 
6883 6365 6364 1 
6884 6366 6364 1 
6885 6367 6364 1 
6886 6368 6363 1 
6887 6369 6363 1 
6888 6372 6380 1 
6889 6372 6381 1 
6890 6372 6373 1 
6891 6372 6374 1 
6892 6375 6374 1 
6893 6376 6374 1 
6894 6377 6374 1 
6895 6378 6373 1 
6896 6379 6373 1 
6897 6382 6390 1 
6898 6382 6391 1 
6899 6382 6383 1 
6900 6382 6384 1 
6901 6385 6384 1 
6902 6386 6384 1 
6903 6387 6384 1 
6904 6388 6383 1 
6905 6389 6383 1 
6906 6392 6393 1 
6907 6392 6397 1 
6908 6392 6398 1 
6909 6394 6393 1 
6910 6395 6393 1 
6911 6396 6393 1 
6912 6399 6407 1 
6913 6399 6408 1 
6914 6400 6399 1 
6915 6400 6405 1 
6916 6400 6406 1 
6917 6401 6399 1 
6918 6401 6403 1 
6919 6401 6404 1 
6920 6402 6401 1 
6921 6409 6413 1 
6922 6410 6409 1 
6923 6411 6410 2 
6924 6412 6409 1 
6925 6415 6414 1 
6926 6416 6415 1 
6927 6417 6415 1 
6928 6418 6415 1 
6929 6419 6414 1 
6930 6420 6414 1 
6931 6421 6423 2 
6932 6421 6461 1 
6933 6422 6421 1 
6934 6422 6460 1 
6935 6422 6424 2 
6936 6425 6423 1 
6937 6425 6459 1 
6938 6426 6423 1 
6939 6426 6457 1 
6940 6426 6458 1 
6941 6427 6424 1 
6942 6428 6425 2 
6943 6428 6424 1 
6944 6428 6456 1 
6945 6429 6426 1 
6946 6429 6462 1 
6947 6430 6427 2 
6948 6431 6433 2 
6949 6431 6429 1 
6950 6432 6431 1 
6951 6432 6455 1 
6952 6432 6434 1 
6953 6432 6435 1 
6954 6434 6484 1 
6955 6435 6453 1 
6956 6435 6454 1 
6957 6436 6434 1 
6958 6436 6451 1 
6959 6436 6452 1 
6960 6437 6436 1 
6961 6437 6435 1 
6962 6438 6437 1 
6963 6439 6437 1 
6964 6440 6438 1 
6965 6440 6449 1 
6966 6440 6450 1 
6967 6441 6439 2 
6968 6442 6440 1 
6969 6442 6443 1 
6970 6442 6447 1 
6971 6442 6448 1 
6972 6444 6443 1 
6973 6445 6443 1 
6974 6446 6443 1 
6975 6463 6502 1 
6976 6463 6503 1 
6977 6464 6463 1 
6978 6465 6463 1 
6979 6465 6500 1 
6980 6465 6501 1 
6981 6466 6464 1 
6982 6467 6465 1 
6983 6467 6497 1 
6984 6467 6498 1 
6985 6467 6499 1 
6986 6468 6466 1 
6987 6468 6495 1 
6988 6468 6496 1 
6989 6469 6466 1 
6990 6469 6493 1 
6991 6469 6494 1 
6992 6470 6466 1 
6993 6470 6473 2 
6994 6471 6468 1 
6995 6471 6474 1 
6996 6471 6492 1 
6997 6472 6469 1 
6998 6472 6471 1 
6999 6475 6474 2 
7000 6476 6474 1 
7001 6476 6504 1 
7002 6477 6476 1 
7003 6477 6490 1 
7004 6477 6491 1 
7005 6478 6477 1 
7006 6479 6478 2 
7007 6479 6489 1 
7008 6480 6478 1 
7009 6480 6488 1 
7010 6481 6479 1 
7011 6481 6483 2 
7012 6481 6487 1 
7013 6482 6480 2 
7014 6482 6483 1 
7015 6482 6486 1 
7016 6484 6483 1 
7017 6485 6484 2 
7018 6506 6505 1 
7019 6507 6506 1 
7020 6507 6518 1 
7021 6507 6519 1 
7022 6508 6506 1 
7023 6508 6516 1 
7024 6508 6517 1 
7025 6509 6506 1 
7026 6510 6507 1 
7027 6510 6513 1 
7028 6510 6515 1 
7029 6511 6510 1 
7030 6511 6508 1 
7031 6512 6509 2 
7032 6514 6513 2 
7033 6520 6532 1 
7034 6521 6520 1 
7035 6521 6523 1 
7036 6521 6531 1 
7037 6521 6524 1 
7038 6522 6520 1 
7039 6522 6525 1 
7040 6522 6526 1 
7041 6522 6530 1 
7042 6525 6523 1 
7043 6527 6524 2 
7044 6528 6525 1 
7045 6529 6525 1 
7046 6533 6520 1 
7047 6534 6526 1 
7048 6535 6543 1 
7049 6535 6544 1 
7050 6535 6880 1 
7051 6536 6535 1 
7052 6537 6536 1 
7053 6538 6537 1 
7054 6539 6537 1 
7055 6540 6537 1 
7056 6541 6536 1 
7057 6542 6536 1 
7058 6545 6558 1 
7059 6545 6559 1 
7060 6546 6545 1 
7061 6547 6545 1 
7062 6547 7056 1 
7063 6548 6546 1 
7064 6548 6556 1 
7065 6548 6557 1 
7066 6549 6546 1 
7067 6549 6610 1 
7068 6549 7051 1 
7069 6550 6546 1 
7070 6550 6603 1 
7071 6551 6548 1 
7072 6551 6547 1 
7073 6551 6553 1 
7074 6551 6555 1 
7075 6552 6550 2 
7076 6553 6526 1 
7077 6554 6553 2 
7078 6560 6669 1 
7079 6561 6563 1 
7080 6561 6560 1 
7081 6561 6565 1 
7082 6561 6564 1 
7083 6562 6560 2 
7084 6563 6573 1 
7085 6563 6574 1 
7086 6565 6670 1 
7087 6565 7004 1 
7088 6566 6563 1 
7089 6567 6564 1 
7090 6567 6566 1 
7091 6567 6706 1 
7092 6568 6566 1 
7093 6568 6702 1 
7094 6569 6568 2 
7095 6570 6566 1 
7096 6571 6564 1 
7097 6572 6564 1 
7098 6575 6652 1 
7099 6576 6575 1 
7100 6576 6590 1 
7101 6577 6575 1 
7102 6577 6588 1 
7103 6577 6589 1 
7104 6578 6576 1 
7105 6578 6586 1 
7106 6578 6587 1 
7107 6579 6576 1 
7108 6579 6651 1 
7109 6580 6577 1 
7110 6580 6578 1 
7111 6580 6583 1 
7112 6581 6579 2 
7113 6582 6580 1 
7114 6582 6584 1 
7115 6582 6944 1 
7116 6583 6940 1 
7117 6585 6583 2 
7118 6591 6598 1 
7119 6591 6599 1 
7120 6591 6600 1 
7121 6592 6591 1 
7122 6592 6593 1 
7123 6592 6596 1 
7124 6592 6597 1 
7125 6593 6626 1 
7126 6594 6593 1 
7127 6595 6593 1 
7128 6601 6603 1 
7129 6601 6615 1 
7130 6601 6616 1 
7131 6602 6601 1 
7132 6602 6604 1 
7133 6602 6605 1 
7134 6602 6606 1 
7135 6604 6613 1 
7136 6604 6614 1 
7137 6605 6961 1 
7138 6606 6957 1 
7139 6607 6604 1 
7140 6607 6603 1 
7141 6608 6605 1 
7142 6609 6606 2 
7143 6610 6607 1 
7144 6611 6610 2 
7145 6612 6607 1 
7146 6617 6694 1 
7147 6618 6617 1 
7148 6618 6986 1 
7149 6619 6618 2 
7150 6620 6617 1 
7151 6621 6617 1 
7152 6622 6623 1 
7153 6622 6624 1 
7154 6622 6625 1 
7155 6622 6626 1 
7156 6623 6635 1 
7157 6623 6636 1 
7158 6624 6633 1 
7159 6624 6634 1 
7160 6625 6873 1 
7161 6626 6877 1 
7162 6627 6623 1 
7163 6628 6509 1 
7164 6628 6627 1 
7165 6628 6624 1 
7166 6629 6625 2 
7167 6630 6505 1 
7168 6630 6627 1 
7169 6631 6630 2 
7170 6632 6627 1 
7171 6637 6645 1 
7172 6637 6646 1 
7173 6637 6805 1 
7174 6638 6637 1 
7175 6638 6643 1 
7176 6638 6644 1 
7177 6639 6638 1 
7178 6640 6639 1 
7179 6641 6639 1 
7180 6642 6639 1 
7181 6647 6660 1 
7182 6647 6661 1 
7183 6648 6647 1 
7184 6649 6647 1 
7185 6649 6653 1 
7186 6649 6934 1 
7187 6650 6648 1 
7188 6650 6653 1 
7189 6650 6658 1 
7190 6650 6659 1 
7191 6651 6648 1 
7192 6651 6913 1 
7193 6652 6648 1 
7194 6652 6654 2 
7195 6655 6653 1 
7196 6655 6959 1 
7197 6656 6655 2 
7198 6657 6653 1 
7199 6662 6982 1 
7200 6662 6663 1 
7201 6662 6664 2 
7202 6665 6663 1 
7203 6665 6675 1 
7204 6665 6676 1 
7205 6666 6663 1 
7206 6666 6673 1 
7207 6666 6674 1 
7208 6667 6663 1 
7209 6667 6981 1 
7210 6667 6890 1 
7211 6668 6665 1 
7212 6669 6666 1 
7213 6669 6668 1 
7214 6670 6668 1 
7215 6671 6670 2 
7216 6672 6668 1 
7217 6677 6684 1 
7218 6677 6685 1 
7219 6677 6686 1 
7220 6678 6677 1 
7221 6678 6683 1 
7222 6679 6678 1 
7223 6679 6732 1 
7224 6680 6679 1 
7225 6681 6679 1 
7226 6682 6678 1 
7227 6687 6947 1 
7228 6688 6687 1 
7229 6688 6701 1 
7230 6689 6687 2 
7231 6690 6688 1 
7232 6690 7034 1 
7233 6691 6688 1 
7234 6691 6699 1 
7235 6691 6700 1 
7236 6691 6693 1 
7237 6692 6690 1 
7238 6692 6693 1 
7239 6692 6697 1 
7240 6692 6698 1 
7241 6694 6693 1 
7242 6694 6814 1 
7243 6695 6693 1 
7244 6695 6816 1 
7245 6696 6695 2 
7246 6702 7042 1 
7247 6702 6703 1 
7248 6704 6703 1 
7249 6704 6715 1 
7250 6704 6716 1 
7251 6705 6703 1 
7252 6705 6713 1 
7253 6705 6714 1 
7254 6706 6703 1 
7255 6707 6704 1 
7256 6708 6705 1 
7257 6708 6707 1 
7258 6708 6727 1 
7259 6709 6706 2 
7260 6710 6707 1 
7261 6710 6732 1 
7262 6711 6710 2 
7263 6712 6707 1 
7264 6717 6725 1 
7265 6717 6726 1 
7266 6717 6850 1 
7267 6718 6717 1 
7268 6718 6723 1 
7269 6718 6724 1 
7270 6719 6718 1 
7271 6720 6719 1 
7272 6721 6719 1 
7273 6722 6719 1 
7274 6728 6727 1 
7275 6729 6727 2 
7276 6730 6728 1 
7277 6730 6733 1 
7278 6730 6740 1 
7279 6730 6741 1 
7280 6731 6728 1 
7281 6731 6734 1 
7282 6731 6738 1 
7283 6731 6739 1 
7284 6732 6728 1 
7285 6734 6733 1 
7286 6734 6470 1 
7287 6735 6733 1 
7288 6735 6464 1 
7289 6736 6735 2 
7290 6737 6733 1 
7291 6742 6743 1 
7292 6742 6744 2 
7293 6742 6745 1 
7294 6743 6782 1 
7295 6745 6783 1 
7296 6746 6743 1 
7297 6746 6427 1 
7298 6747 6743 1 
7299 6747 6780 1 
7300 6747 6781 1 
7301 6748 6745 1 
7302 6748 6778 1 
7303 6748 6779 1 
7304 6749 6746 1 
7305 6749 6776 1 
7306 6749 6777 1 
7307 6750 6749 1 
7308 6750 6747 1 
7309 6750 6753 1 
7310 6751 6748 1 
7311 6751 6754 2 
7312 6751 6755 1 
7313 6752 6750 1 
7314 6752 6862 1 
7315 6752 6756 1 
7316 6753 6858 1 
7317 6754 6775 1 
7318 6755 6774 1 
7319 6756 6772 1 
7320 6756 6773 1 
7321 6757 6753 2 
7322 6758 6754 1 
7323 6758 6771 1 
7324 6759 6755 2 
7325 6759 6770 1 
7326 6760 6756 1 
7327 6760 6768 1 
7328 6760 6769 1 
7329 6761 6763 1 
7330 6761 6758 2 
7331 6761 6759 1 
7332 6762 6760 1 
7333 6762 6765 1 
7334 6762 6766 1 
7335 6762 6767 1 
7336 6763 6472 1 
7337 6764 6763 2 
7338 6784 6794 1 
7339 6784 6795 1 
7340 6785 6784 1 
7341 6785 7052 1 
7342 6785 6797 1 
7343 6786 6784 1 
7344 6786 6793 1 
7345 6787 6786 1 
7346 6788 6850 1 
7347 6788 6787 1 
7348 6789 6787 1 
7349 6789 6796 1 
7350 6789 6851 1 
7351 6790 6788 2 
7352 6791 6787 1 
7353 6792 6786 1 
7354 6798 6439 1 
7355 6799 6798 1 
7356 6799 6812 1 
7357 6800 6803 1 
7358 6800 6798 1 
7359 6800 6810 1 
7360 6800 6811 1 
7361 6801 6799 1 
7362 6801 6808 1 
7363 6801 6809 1 
7364 6801 6803 1 
7365 6802 6799 1 
7366 6802 6438 1 
7367 6802 6804 2 
7368 6805 6803 1 
7369 6805 6513 1 
7370 6806 6803 1 
7371 6806 6511 1 
7372 6807 6806 2 
7373 6814 6813 2 
7374 6815 6814 1 
7375 6815 6828 1 
7376 6816 6815 1 
7377 6817 6815 1 
7378 6817 6826 1 
7379 6817 6827 1 
7380 6818 6816 1 
7381 6818 6824 1 
7382 6818 6825 1 
7383 6819 6817 1 
7384 6819 6818 1 
7385 6820 6524 1 
7386 6820 6819 1 
7387 6821 6523 1 
7388 6821 6819 1 
7389 6821 6823 2 
7390 6822 6820 1 
7391 6829 6840 1 
7392 6830 6880 1 
7393 6830 6829 1 
7394 6830 6833 2 
7395 6831 6829 1 
7396 6831 6842 1 
7397 6831 6881 1 
7398 6832 6829 1 
7399 6832 6834 1 
7400 6832 6838 1 
7401 6832 6839 1 
7402 6835 6834 1 
7403 6835 6914 1 
7404 6836 6834 1 
7405 6837 6834 1 
7406 6841 6835 1 
7407 6843 6925 1 
7408 6844 6843 1 
7409 6844 6857 1 
7410 6845 6843 1 
7411 6845 6855 1 
7412 6845 6856 1 
7413 6846 6844 1 
7414 6846 6853 1 
7415 6846 6854 1 
7416 6847 6844 1 
7417 6847 6926 1 
7418 6848 6845 1 
7419 6848 6846 1 
7420 6849 6847 2 
7421 6850 6848 1 
7422 6851 6848 1 
7423 6852 6851 2 
7424 6859 6858 1 
7425 6859 6872 1 
7426 6860 6863 1 
7427 6860 6858 1 
7428 6860 6870 1 
7429 6860 6871 1 
7430 6861 6859 1 
7431 6861 6868 1 
7432 6861 6869 1 
7433 6861 6863 1 
7434 6862 6859 1 
7435 6862 6864 2 
7436 6865 6863 1 
7437 6865 6906 1 
7438 6865 7025 1 
7439 6866 6863 1 
7440 6866 6900 1 
7441 6867 6866 2 
7442 6874 6873 1 
7443 6874 6887 1 
7444 6875 6873 1 
7445 6875 6885 1 
7446 6875 6886 1 
7447 6876 6874 1 
7448 6876 6883 1 
7449 6876 6884 1 
7450 6877 6874 1 
7451 6878 6875 1 
7452 6878 6876 1 
7453 6879 6877 2 
7454 6880 6878 1 
7455 6881 6878 1 
7456 6882 6881 2 
7457 6888 6895 1 
7458 6888 6896 1 
7459 6888 6897 1 
7460 6889 6888 1 
7461 6889 6893 1 
7462 6889 6894 1 
7463 6890 6889 1 
7464 6891 6890 1 
7465 6892 6890 1 
7466 6898 6911 1 
7467 6898 6912 1 
7468 6899 6898 1 
7469 6899 6903 1 
7470 6900 6904 1 
7471 6900 6898 1 
7472 6901 6899 1 
7473 6901 6904 1 
7474 6901 6909 1 
7475 6901 6910 1 
7476 6902 6899 1 
7477 6902 7015 1 
7478 6902 6922 1 
7479 6903 6918 1 
7480 6905 6903 2 
7481 6906 6904 1 
7482 6907 6906 2 
7483 6908 6904 1 
7484 6914 6913 1 
7485 6915 6914 2 
7486 6916 6913 1 
7487 6917 6913 1 
7488 6919 6918 1 
7489 6919 6932 1 
7490 6920 6923 1 
7491 6920 6918 1 
7492 6920 6930 1 
7493 6920 6931 1 
7494 6921 6919 1 
7495 6921 6928 1 
7496 6921 6929 1 
7497 6921 6923 1 
7498 6922 6919 1 
7499 6922 6924 2 
7500 6925 6923 1 
7501 6926 6923 1 
7502 6926 6994 1 
7503 6927 6925 2 
7504 6934 6933 1 
7505 6935 6934 1 
7506 6936 6934 1 
7507 6937 6933 1 
7508 6938 6933 1 
7509 6939 6933 1 
7510 6941 6940 1 
7511 6941 6953 1 
7512 6941 6943 1 
7513 6941 6944 1 
7514 6942 6940 1 
7515 6942 6952 1 
7516 6942 6945 1 
7517 6942 6951 1 
7518 6945 6943 1 
7519 6946 6944 2 
7520 6947 6945 1 
7521 6947 6954 1 
7522 6948 6945 1 
7523 6949 6943 1 
7524 6950 6943 1 
7525 6955 6967 1 
7526 6955 6968 1 
7527 6956 6955 1 
7528 6956 6966 1 
7529 6957 6955 1 
7530 6958 6956 1 
7531 6958 6964 1 
7532 6958 6965 1 
7533 6959 6956 1 
7534 6959 6969 1 
7535 6960 6958 1 
7536 6960 6957 1 
7537 6960 6963 1 
7538 6961 6960 1 
7539 6962 6961 2 
7540 6970 6505 1 
7541 6970 6978 1 
7542 6970 6979 1 
7543 6971 6970 1 
7544 6971 6976 1 
7545 6971 6977 1 
7546 6972 6971 1 
7547 6972 6973 1 
7548 6972 6974 1 
7549 6972 6975 1 
7550 6980 6983 1 
7551 6980 6991 1 
7552 6981 6980 1 
7553 6981 6984 2 
7554 6982 6980 1 
7555 6982 6993 1 
7556 6985 6983 1 
7557 6986 6985 1 
7558 6987 6985 1 
7559 6988 6985 1 
7560 6989 6983 1 
7561 6990 6983 1 
7562 6992 6986 1 
7563 6994 7003 1 
7564 6995 6994 1 
7565 6996 6995 1 
7566 6997 6996 1 
7567 6998 6996 1 
7568 6999 6996 1 
7569 7000 6995 1 
7570 7001 6995 1 
7571 7002 6994 1 
7572 7004 7013 1 
7573 7005 7004 1 
7574 7006 7005 1 
7575 7007 7006 1 
7576 7008 7006 1 
7577 7009 7006 1 
7578 7010 7005 1 
7579 7011 7005 1 
7580 7012 7004 1 
7581 7014 7023 1 
7582 7015 7014 1 
7583 7016 7014 1 
7584 7017 7016 1 
7585 7018 7016 1 
7586 7019 7016 1 
7587 7020 7015 1 
7588 7021 7015 1 
7589 7022 7014 1 
7590 7024 7033 1 
7591 7025 7024 1 
7592 7026 7024 1 
7593 7027 7026 1 
7594 7028 7026 1 
7595 7029 7026 1 
7596 7030 7025 1 
7597 7031 7025 1 
7598 7032 7024 1 
7599 7035 7034 1 
7600 7036 7035 1 
7601 7037 7035 1 
7602 7038 7035 1 
7603 7039 7034 1 
7604 7040 7034 1 
7605 7041 7043 1 
7606 7041 7049 1 
7607 7041 7050 1 
7608 7042 7041 1 
7609 7042 7047 1 
7610 7042 7048 1 
7611 7044 7043 1 
7612 7045 7043 1 
7613 7046 7043 1 
7614 7051 7054 1 
7615 7051 7055 1 
7616 7052 7051 1 
7617 7052 7053 2 
7618 7057 7056 1 
7619 7058 7057 1 
7620 7059 7057 1 
7621 7060 7057 1 
7622 7061 7056 1 
7623 7062 7056 1 
7624 7063 7103 1 
7625 7064 7063 1 
7626 7064 7102 1 
7627 7065 7063 2 
7628 7066 7064 2 
7629 7067 7065 1 
7630 7067 7101 1 
7631 7068 7065 1 
7632 7068 7099 1 
7633 7068 7100 1 
7634 7069 7066 1 
7635 7070 7067 2 
7636 7070 7066 1 
7637 7070 7098 1 
7638 7071 7068 1 
7639 7071 7104 1 
7640 7071 7073 1 
7641 7072 7069 2 
7642 7074 7073 1 
7643 7074 7097 1 
7644 7075 7073 2 
7645 7076 7074 1 
7646 7076 7126 1 
7647 7077 7074 1 
7648 7077 7095 1 
7649 7077 7096 1 
7650 7078 7076 1 
7651 7078 7093 1 
7652 7078 7094 1 
7653 7079 7078 1 
7654 7079 7077 1 
7655 7080 7079 1 
7656 7081 7079 1 
7657 7081 7083 2 
7658 7082 7080 1 
7659 7082 7084 1 
7660 7082 7091 1 
7661 7082 7092 1 
7662 7085 7084 1 
7663 7086 7085 1 
7664 7087 7085 1 
7665 7088 7085 1 
7666 7089 7084 1 
7667 7090 7084 1 
7668 7105 7144 1 
7669 7105 7145 1 
7670 7106 7105 1 
7671 7107 7105 1 
7672 7107 7142 1 
7673 7107 7143 1 
7674 7108 7106 1 
7675 7109 7107 1 
7676 7109 7139 1 
7677 7109 7140 1 
7678 7109 7141 1 
7679 7110 7108 1 
7680 7110 7137 1 
7681 7110 7138 1 
7682 7110 7113 1 
7683 7111 7108 1 
7684 7111 7114 1 
7685 7111 7135 1 
7686 7111 7136 1 
7687 7112 7108 1 
7688 7112 7115 2 
7689 7113 7134 1 
7690 7114 7113 1 
7691 7116 7113 1 
7692 7117 7116 2 
7693 7118 7116 1 
7694 7118 7146 1 
7695 7119 7118 1 
7696 7119 7132 1 
7697 7119 7133 1 
7698 7120 7119 1 
7699 7121 7120 2 
7700 7121 7131 1 
7701 7121 7123 1 
7702 7122 7120 1 
7703 7122 7124 2 
7704 7122 7130 1 
7705 7125 7123 2 
7706 7125 7124 1 
7707 7126 7125 1 
7708 7127 7126 2 
7709 7128 7124 1 
7710 7129 7123 1 
7711 7147 7272 1 
7712 7148 7147 1 
7713 7149 7148 1 
7714 7149 7160 1 
7715 7149 7161 1 
7716 7150 7148 1 
7717 7150 7158 1 
7718 7150 7159 1 
7719 7150 7153 1 
7720 7151 7148 1 
7721 7151 7154 2 
7722 7151 7270 1 
7723 7152 7149 1 
7724 7152 7155 1 
7725 7152 7157 1 
7726 7152 7153 1 
7727 7156 7155 2 
7728 7162 7174 1 
7729 7162 7175 1 
7730 7162 7164 1 
7731 7162 7163 1 
7732 7163 7173 1 
7733 7165 7163 1 
7734 7166 7163 1 
7735 7167 7164 1 
7736 7167 7165 1 
7737 7168 7164 1 
7738 7168 7195 1 
7739 7168 7176 1 
7740 7169 7166 2 
7741 7170 7167 1 
7742 7171 7167 1 
7743 7172 7164 1 
7744 7177 7185 1 
7745 7177 7186 1 
7746 7178 7177 1 
7747 7178 7184 1 
7748 7178 7183 1 
7749 7179 7178 1 
7750 7180 7179 1 
7751 7181 7179 1 
7752 7182 7179 1 
7753 7187 7200 1 
7754 7187 7201 1 
7755 7188 7187 1 
7756 7189 7187 1 
7757 7189 7193 1 
7758 7190 7188 1 
7759 7190 7198 1 
7760 7190 7199 1 
7761 7190 7193 1 
7762 7191 7188 1 
7763 7191 7252 1 
7764 7192 7188 1 
7765 7192 7245 1 
7766 7192 7194 2 
7767 7195 7193 1 
7768 7196 7195 2 
7769 7197 7193 1 
7770 7202 7204 2 
7771 7202 7203 1 
7772 7202 7311 1 
7773 7205 7203 1 
7774 7205 7215 1 
7775 7205 7216 1 
7776 7206 7203 1 
7777 7206 7214 1 
7778 7206 7213 1 
7779 7207 7203 1 
7780 7207 7312 1 
7781 7208 7205 1 
7782 7209 7206 1 
7783 7209 7208 1 
7784 7210 7208 1 
7785 7211 7210 2 
7786 7212 7208 1 
7787 7217 7294 1 
7788 7218 7217 1 
7789 7218 7232 1 
7790 7219 7217 1 
7791 7219 7230 1 
7792 7219 7231 1 
7793 7220 7218 1 
7794 7220 7228 1 
7795 7220 7229 1 
7796 7221 7218 1 
7797 7221 7223 2 
7798 7221 7293 1 
7799 7222 7219 1 
7800 7222 7220 1 
7801 7222 7225 1 
7802 7222 7224 1 
7803 7226 7224 1 
7804 7227 7225 2 
7805 7234 7233 1 
7806 7235 7234 1 
7807 7235 7268 1 
7808 7236 7235 1 
7809 7237 7235 1 
7810 7238 7234 1 
7811 7239 7234 1 
7812 7240 7233 1 
7813 7241 7233 1 
7814 7242 7233 1 
7815 7243 7257 1 
7816 7243 7258 1 
7817 7244 7243 1 
7818 7245 7243 1 
7819 7246 7244 1 
7820 7246 7255 1 
7821 7246 7256 1 
7822 7247 7244 1 
7823 7248 7244 1 
7824 7249 7246 1 
7825 7249 7245 1 
7826 7249 7254 1 
7827 7250 7247 1 
7828 7251 7248 2 
7829 7252 7249 1 
7830 7252 7253 2 
7831 7259 7263 1 
7832 7259 7336 1 
7833 7260 7259 1 
7834 7261 7260 2 
7835 7262 7259 1 
7836 7265 7264 1 
7837 7265 7277 1 
7838 7265 7278 1 
7839 7266 7264 1 
7840 7266 7275 1 
7841 7266 7276 1 
7842 7267 7264 1 
7843 7268 7264 1 
7844 7269 7265 1 
7845 7269 7274 1 
7846 7270 7269 1 
7847 7270 7266 1 
7848 7271 7267 2 
7849 7272 7269 1 
7850 7272 7273 2 
7851 7279 7287 1 
7852 7279 7288 1 
7853 7280 7279 1 
7854 7280 7285 1 
7855 7280 7286 1 
7856 7281 7280 1 
7857 7281 7283 1 
7858 7281 7284 1 
7859 7282 7281 1 
7860 7289 7302 1 
7861 7289 7303 1 
7862 7290 7289 1 
7863 7290 7294 1 
7864 7290 7293 1 
7865 7291 7289 1 
7866 7291 7295 1 
7867 7292 7290 1 
7868 7292 7295 1 
7869 7292 7300 1 
7870 7292 7301 1 
7871 7296 7294 2 
7872 7297 7295 1 
7873 7298 7297 2 
7874 7299 7295 1 
7875 7305 7304 1 
7876 7306 7304 2 
7877 7307 7305 1 
7878 7307 7317 1 
7879 7307 7318 1 
7880 7308 7305 1 
7881 7308 7315 1 
7882 7308 7316 1 
7883 7309 7305 1 
7884 7310 7307 1 
7885 7310 7314 1 
7886 7311 7308 1 
7887 7311 7310 1 
7888 7312 7310 1 
7889 7312 7313 2 
7890 7319 7326 1 
7891 7319 7327 1 
7892 7319 7328 1 
7893 7320 7319 1 
7894 7320 7324 1 
7895 7320 7325 1 
7896 7321 7320 1 
7897 7321 7323 1 
7898 7322 7321 1 
7899 7330 7329 1 
7900 7330 7333 1 
7901 7331 7329 2 
7902 7332 7330 1 
7903 7332 7334 1 
7904 7335 7333 1 
7905 7335 7334 1 
7906 7336 7335 1 
7907 7337 7335 1 
7908 7338 7337 2 
7909 7339 7334 1 
7910 7340 7334 1 
7911 7341 7333 1 
7912 7342 7333 1 
7913 7343 7330 1 
7914 7344 7210 1 
7915 7344 7684 1 
7916 7345 7344 1 
7917 7346 7345 1 
7918 7346 7357 1 
7919 7346 7358 1 
7920 7347 7345 1 
7921 7347 7355 1 
7922 7347 7356 1 
7923 7348 7209 1 
7924 7348 7345 1 
7925 7349 7346 1 
7926 7349 7354 1 
7927 7350 7347 1 
7928 7350 7349 1 
7929 7350 7369 1 
7930 7351 7348 2 
7931 7352 7349 1 
7932 7352 7374 1 
7933 7352 7353 2 
7934 7359 7367 1 
7935 7359 7368 1 
7936 7359 7492 1 
7937 7360 7359 1 
7938 7360 7365 1 
7939 7360 7366 1 
7940 7361 7360 1 
7941 7361 7364 1 
7942 7361 7363 1 
7943 7362 7361 1 
7944 7370 7374 1 
7945 7370 7369 1 
7946 7370 7373 1 
7947 7371 7369 2 
7948 7372 7370 1 
7949 7372 7375 1 
7950 7372 7382 1 
7951 7372 7383 1 
7952 7374 7321 1 
7953 7376 7373 1 
7954 7376 7375 1 
7955 7376 7112 1 
7956 7377 7375 1 
7957 7377 7106 1 
7958 7378 7377 2 
7959 7379 7375 1 
7960 7380 7373 1 
7961 7381 7373 1 
7962 7385 7384 1 
7963 7385 7424 1 
7964 7386 7384 2 
7965 7387 7384 1 
7966 7387 7425 1 
7967 7388 7385 1 
7968 7388 7069 1 
7969 7389 7385 1 
7970 7389 7422 1 
7971 7389 7423 1 
7972 7390 7387 1 
7973 7390 7420 1 
7974 7390 7421 1 
7975 7390 7393 1 
7976 7391 7388 1 
7977 7391 7418 1 
7978 7391 7419 1 
7979 7392 7391 1 
7980 7392 7389 1 
7981 7392 7394 1 
7982 7392 7395 1 
7983 7394 7504 1 
7984 7395 7500 1 
7985 7396 7393 2 
7986 7396 7417 1 
7987 7397 7393 1 
7988 7397 7416 1 
7989 7398 7394 1 
7990 7398 7414 1 
7991 7398 7415 1 
7992 7399 7395 2 
7993 7400 7396 1 
7994 7400 7413 1 
7995 7400 7403 2 
7996 7401 7397 2 
7997 7401 7412 1 
7998 7401 7403 1 
7999 7402 7398 1 
8000 7402 7404 1 
8001 7402 7410 1 
8002 7402 7411 1 
8003 7405 7403 1 
8004 7405 7114 1 
8005 7406 7405 2 
8006 7407 7404 1 
8007 7408 7404 1 
8008 7409 7404 1 
8009 7426 7436 1 
8010 7426 7437 1 
8011 7427 7426 1 
8012 7427 7694 1 
8013 7427 7439 1 
8014 7428 7426 1 
8015 7428 7434 1 
8016 7428 7435 1 
8017 7429 7428 1 
8018 7429 7433 1 
8019 7430 7492 1 
8020 7430 7429 1 
8021 7431 7429 1 
8022 7431 7438 1 
8023 7431 7493 1 
8024 7432 7430 2 
8025 7440 7081 1 
8026 7441 7440 1 
8027 7441 7444 1 
8028 7441 7454 1 
8029 7441 7443 1 
8030 7442 7445 1 
8031 7442 7440 1 
8032 7442 7452 1 
8033 7442 7453 1 
8034 7444 7080 1 
8035 7445 7443 1 
8036 7446 7444 2 
8037 7447 7445 1 
8038 7447 7279 1 
8039 7447 7155 1 
8040 7448 7445 1 
8041 7448 7153 1 
8042 7449 7448 2 
8043 7450 7443 1 
8044 7451 7443 1 
8045 7456 7336 1 
8046 7456 7455 2 
8047 7457 7456 1 
8048 7457 7470 1 
8049 7458 7337 1 
8050 7458 7457 1 
8051 7459 7457 1 
8052 7459 7468 1 
8053 7459 7469 1 
8054 7460 7458 1 
8055 7460 7466 1 
8056 7460 7467 1 
8057 7461 7459 1 
8058 7461 7460 1 
8059 7461 7463 1 
8060 7462 7166 1 
8061 7462 7461 1 
8062 7462 7464 1 
8063 7463 7165 1 
8064 7465 7463 2 
8065 7471 7474 1 
8066 7471 7482 1 
8067 7471 7473 1 
8068 7472 7522 1 
8069 7472 7471 1 
8070 7472 7475 2 
8071 7473 7484 1 
8072 7473 7523 1 
8073 7476 7474 1 
8074 7477 7476 1 
8075 7477 7556 1 
8076 7477 7483 1 
8077 7478 7476 1 
8078 7479 7476 1 
8079 7480 7474 1 
8080 7481 7474 1 
8081 7485 7567 1 
8082 7486 7485 1 
8083 7486 7499 1 
8084 7487 7485 1 
8085 7487 7497 1 
8086 7487 7498 1 
8087 7488 7486 1 
8088 7488 7495 1 
8089 7488 7496 1 
8090 7489 7486 1 
8091 7489 7568 1 
8092 7490 7487 1 
8093 7490 7488 1 
8094 7490 7493 1 
8095 7491 7489 2 
8096 7492 7490 1 
8097 7494 7493 2 
8098 7501 7500 1 
8099 7501 7504 1 
8100 7501 7514 1 
8101 7501 7503 1 
8102 7502 7505 1 
8103 7502 7500 1 
8104 7502 7512 1 
8105 7502 7513 1 
8106 7505 7503 1 
8107 7506 7504 2 
8108 7507 7505 1 
8109 7507 7548 1 
8110 7507 7667 1 
8111 7508 7505 1 
8112 7508 7542 1 
8113 7509 7508 2 
8114 7510 7503 1 
8115 7511 7503 1 
8116 7515 7267 1 
8117 7516 7515 1 
8118 7516 7529 1 
8119 7517 7515 1 
8120 7517 7527 1 
8121 7517 7528 1 
8122 7518 7516 1 
8123 7518 7525 1 
8124 7518 7526 1 
8125 7519 7516 1 
8126 7519 7268 1 
8127 7520 7517 1 
8128 7520 7518 1 
8129 7520 7523 1 
8130 7521 7519 2 
8131 7522 7520 1 
8132 7522 7177 1 
8133 7524 7523 2 
8134 7530 7537 1 
8135 7530 7538 1 
8136 7530 7539 1 
8137 7531 7530 1 
8138 7531 7535 1 
8139 7531 7536 1 
8140 7532 7309 1 
8141 7532 7531 1 
8142 7532 7534 1 
8143 7532 7533 1 
8144 7540 7553 1 
8145 7540 7554 1 
8146 7541 7540 1 
8147 7541 7544 1 
8148 7541 7545 1 
8149 7541 7543 1 
8150 7542 7546 1 
8151 7542 7540 1 
8152 7544 7657 1 
8153 7544 7564 1 
8154 7545 7560 1 
8155 7546 7543 1 
8156 7547 7545 2 
8157 7548 7546 1 
8158 7549 7548 2 
8159 7550 7546 1 
8160 7551 7543 1 
8161 7552 7543 1 
8162 7555 7293 1 
8163 7556 7555 1 
8164 7557 7556 2 
8165 7558 7555 1 
8166 7559 7555 1 
8167 7561 7560 1 
8168 7561 7574 1 
8169 7561 7564 1 
8170 7561 7563 1 
8171 7562 7565 1 
8172 7562 7560 1 
8173 7562 7572 1 
8174 7562 7573 1 
8175 7565 7563 1 
8176 7566 7564 2 
8177 7567 7565 1 
8178 7568 7565 1 
8179 7568 7636 1 
8180 7569 7567 2 
8181 7570 7563 1 
8182 7571 7563 1 
8183 7576 7291 1 
8184 7576 7575 1 
8185 7577 7576 1 
8186 7578 7576 1 
8187 7579 7575 1 
8188 7580 7575 1 
8189 7581 7575 1 
8190 7582 7225 1 
8191 7582 7584 1 
8192 7582 7583 1 
8193 7583 7595 1 
8194 7584 7594 1 
8195 7584 7593 1 
8196 7585 7583 1 
8197 7586 7583 1 
8198 7586 7224 1 
8199 7587 7584 1 
8200 7587 7585 1 
8201 7588 7586 2 
8202 7589 7329 1 
8203 7589 7587 1 
8204 7589 7596 1 
8205 7590 7587 1 
8206 7591 7585 1 
8207 7592 7585 1 
8208 7597 7609 1 
8209 7597 7610 1 
8210 7598 7597 1 
8211 7598 7608 1 
8212 7599 7597 1 
8213 7599 7248 1 
8214 7600 7598 1 
8215 7600 7606 1 
8216 7600 7607 1 
8217 7601 7297 1 
8218 7601 7598 1 
8219 7601 7611 1 
8220 7602 7600 1 
8221 7602 7599 1 
8222 7602 7605 1 
8223 7602 7603 1 
8224 7603 7247 1 
8225 7604 7603 2 
8226 7612 7147 1 
8227 7612 7620 1 
8228 7612 7621 1 
8229 7612 7613 1 
8230 7614 7613 1 
8231 7615 7614 1 
8232 7616 7614 1 
8233 7617 7614 1 
8234 7618 7613 1 
8235 7619 7613 1 
8236 7622 7625 1 
8237 7622 7624 1 
8238 7622 7633 1 
8239 7622 7623 1 
8240 7623 7309 1 
8241 7624 7304 1 
8242 7624 7635 1 
8243 7626 7623 2 
8244 7627 7625 1 
8245 7628 7260 1 
8246 7628 7627 1 
8247 7628 7634 1 
8248 7629 7627 1 
8249 7630 7627 1 
8250 7631 7625 1 
8251 7632 7625 1 
8252 7636 7644 1 
8253 7636 7645 1 
8254 7637 7636 1 
8255 7637 7643 1 
8256 7638 7637 1 
8257 7639 7638 1 
8258 7640 7638 1 
8259 7641 7638 1 
8260 7642 7637 1 
8261 7646 7207 1 
8262 7646 7654 1 
8263 7646 7655 1 
8264 7647 7646 1 
8265 7647 7653 1 
8266 7648 7647 1 
8267 7649 7648 1 
8268 7650 7648 1 
8269 7651 7648 1 
8270 7652 7647 1 
8271 7656 7664 1 
8272 7656 7665 1 
8273 7657 7656 1 
8274 7657 7663 1 
8275 7658 7656 1 
8276 7659 7658 1 
8277 7660 7658 1 
8278 7661 7658 1 
8279 7662 7657 1 
8280 7666 7674 1 
8281 7666 7675 1 
8282 7667 7666 1 
8283 7667 7673 1 
8284 7668 7666 1 
8285 7669 7668 1 
8286 7670 7668 1 
8287 7671 7668 1 
8288 7672 7667 1 
8289 7676 7332 1 
8290 7677 7676 1 
8291 7678 7677 1 
8292 7679 7677 1 
8293 7680 7677 1 
8294 7681 7676 1 
8295 7682 7676 1 
8296 7684 7683 1 
8297 7685 7683 1 
8298 7686 7685 1 
8299 7687 7685 1 
8300 7688 7685 1 
8301 7689 7684 1 
8302 7690 7684 1 
8303 7691 7683 1 
8304 7692 7683 1 
8305 7693 7191 1 
8306 7694 7693 1 
8307 7695 7694 2 
8308 7696 7693 1 
8309 7697 7693 1 
8310 7698 7189 1 
8311 7698 7704 1 
8312 7698 7703 1 
8313 7699 7698 1 
8314 7700 7699 1 
8315 7701 7699 1 
8316 7702 7699 1 
8317 7706 7705 1 
8318 7707 7705 1 
8319 7709 7708 1 
8320 7710 7708 1 
8321 7712 7711 1 
8322 7713 7711 1 
8323 7715 7714 1 
8324 7716 7714 1 
8325 7718 7717 1 
8326 7719 7717 1 
8327 7721 7720 1 
8328 7722 7720 1 
8329 7723 7725 1 
8330 7724 7723 1 
8331 7727 7726 1 
8332 7728 7726 1 
8333 7730 7729 1 
8334 7731 7729 1 
8335 7733 7732 1 
8336 7734 7732 1 
8337 7735 7737 1 
8338 7736 7735 1 
8339 7739 7738 1 
8340 7740 7738 1 
8341 7741 7743 1 
8342 7742 7741 1 
8343 7745 7744 1 
8344 7746 7744 1 
8345 7748 7747 1 
8346 7749 7747 1 
8347 7751 7750 1 
8348 7752 7750 1 
8349 7754 7753 1 
8350 7755 7753 1 
8351 7757 7756 1 
8352 7758 7756 1 
8353 7760 7759 1 
8354 7761 7759 1 
8355 7763 7762 1 
8356 7764 7762 1 
8357 7766 7765 1 
8358 7767 7765 1 
8359 7768 7769 1 
8360 7768 7770 1 
8361 7772 7771 1 
8362 7773 7771 1 
8363 7774 7776 1 
8364 7775 7774 1 
8365 7778 7777 1 
8366 7779 7777 1 
8367 7781 7780 1 
8368 7782 7780 1 
8369 7784 7783 1 
8370 7785 7783 1 
8371 7787 7786 1 
8372 7788 7786 1 
8373 7789 7791 1 
8374 7790 7789 1 
8375 7793 7792 1 
8376 7794 7792 1 
8377 7796 7795 1 
8378 7797 7795 1 
8379 7798 7800 1 
8380 7799 7798 1 
8381 7802 7801 1 
8382 7803 7801 1 
8383 7804 7805 1 
8384 7804 7806 1 
8385 7808 7807 1 
8386 7809 7807 1 
8387 7810 7812 1 
8388 7811 7810 1 
8389 7813 7815 1 
8390 7814 7813 1 
8391 7816 7818 1 
8392 7816 7817 1 
8393 7820 7819 1 
8394 7821 7819 1 
8395 7823 7822 1 
8396 7824 7822 1 
8397 7826 7825 1 
8398 7827 7825 1 
8399 7829 7828 1 
8400 7830 7828 1 
8401 7831 7832 1 
8402 7831 7833 1 
8403 7835 7834 1 
8404 7836 7834 1 
8405 7838 7837 1 
8406 7839 7837 1 
8407 7841 7840 1 
8408 7842 7840 1 
8409 7844 7843 1 
8410 7845 7843 1 
8411 7847 7846 1 
8412 7848 7846 1 
8413 7849 7851 1 
8414 7849 7850 1 
8415 7853 7852 1 
8416 7854 7852 1 
8417 7856 7855 1 
8418 7857 7855 1 
8419 7859 7858 1 
8420 7860 7858 1 
8421 7861 7863 1 
8422 7861 7862 1 
8423 7865 7864 1 
8424 7866 7864 1 
8425 7868 7867 1 
8426 7869 7867 1 
8427 7871 7870 1 
8428 7872 7870 1 
8429 7873 7875 1 
8430 7874 7873 1 
8431 7877 7876 1 
8432 7878 7876 1 
8433 7879 7881 1 
8434 7880 7879 1 
8435 7883 7882 1 
8436 7884 7882 1 
8437 7886 7885 1 
8438 7887 7885 1 
8439 7889 7888 1 
8440 7890 7888 1 
8441 7891 7892 1 
8442 7891 7893 1 
8443 7895 7894 1 
8444 7896 7894 1 
8445 7898 7897 1 
8446 7899 7897 1 
8447 7901 7900 1 
8448 7902 7900 1 
8449 7904 7903 1 
8450 7905 7903 1 
8451 7907 7906 1 
8452 7908 7906 1 
8453 7910 7909 1 
8454 7911 7909 1 
8455 7913 7912 1 
8456 7914 7912 1 
8457 7916 7915 1 
8458 7917 7915 1 
8459 7919 7918 1 
8460 7920 7918 1 
8461 7922 7921 1 
8462 7923 7921 1 
8463 7925 7924 1 
8464 7926 7924 1 
8465 7928 7927 1 
8466 7929 7927 1 
8467 7930 7932 1 
8468 7930 7931 1 
8469 7934 7933 1 
8470 7935 7933 1 
8471 7937 7936 1 
8472 7938 7936 1 
8473 7940 7939 1 
8474 7941 7939 1 
8475 7942 7944 1 
8476 7943 7942 1 
8477 7945 7947 1 
8478 7945 7946 1 
8479 7949 7948 1 
8480 7950 7948 1 
8481 7952 7951 1 
8482 7953 7951 1 
8483 7954 7956 1 
8484 7955 7954 1 
8485 7958 7957 1 
8486 7959 7957 1 
8487 7961 7960 1 
8488 7962 7960 1 
8489 7963 7965 1 
8490 7964 7963 1 
8491 7967 7966 1 
8492 7968 7966 1 
8493 7970 7969 1 
8494 7971 7969 1 
8495 7972 7973 1 
8496 7972 7974 1 
8497 7976 7975 1 
8498 7977 7975 1 
8499 7979 7978 1 
8500 7980 7978 1 
8501 7982 7981 1 
8502 7983 7981 1 
8503 7985 7984 1 
8504 7986 7984 1 
8505 7988 7987 1 
8506 7989 7987 1 
8507 7991 7990 1 
8508 7992 7990 1 
8509 7994 7993 1 
8510 7995 7993 1 
8511 7997 7996 1 
8512 7998 7996 1 
8513 8000 7999 1 
8514 8001 7999 1 
8515 8002 8004 1 
8516 8003 8002 1 
8517 8006 8005 1 
8518 8007 8005 1 
8519 8009 8008 1 
8520 8010 8008 1 
8521 8011 8013 1 
8522 8012 8011 1 
8523 8015 8014 1 
8524 8016 8014 1 
8525 8018 8017 1 
8526 8019 8017 1 
8527 8021 8020 1 
8528 8022 8020 1 
8529 8023 8024 1 
8530 8023 8025 1 
8531 8027 8026 1 
8532 8028 8026 1 
8533 8029 8031 1 
8534 8030 8029 1 
8535 8033 8032 1 
8536 8034 8032 1 
8537 8036 8035 1 
8538 8037 8035 1 
8539 8039 8038 1 
8540 8040 8038 1 
8541 8042 8041 1 
8542 8043 8041 1 
8543 8045 8044 1 
8544 8046 8044 1 
8545 8048 8047 1 
8546 8049 8047 1 
8547 8050 8052 1 
8548 8050 8051 1 
8549 8054 8053 1 
8550 8055 8053 1 
8551 8056 8058 1 
8552 8057 8056 1 
8553 8060 8059 1 
8554 8061 8059 1 
8555 8063 8062 1 
8556 8064 8062 1 
8557 8066 8065 1 
8558 8067 8065 1 
8559 8068 8069 1 
8560 8068 8070 1 
8561 8072 8071 1 
8562 8073 8071 1 
8563 8075 8074 1 
8564 8076 8074 1 
8565 8077 8079 1 
8566 8078 8077 1 
8567 8081 8080 1 
8568 8082 8080 1 
8569 8083 8084 1 
8570 8083 8085 1 
8571 8086 8088 1 
8572 8087 8086 1 
8573 8089 8090 1 
8574 8089 8091 1 
8575 8092 8094 1 
8576 8093 8092 1 
8577 8096 8095 1 
8578 8097 8095 1 
8579 8099 8098 1 
8580 8100 8098 1 
8581 8101 8103 1 
8582 8102 8101 1 
8583 8105 8104 1 
8584 8106 8104 1 
8585 8108 8107 1 
8586 8109 8107 1 
8587 8111 8110 1 
8588 8112 8110 1 
8589 8114 8113 1 
8590 8115 8113 1 
8591 8117 8116 1 
8592 8118 8116 1 
8593 8119 8121 1 
8594 8120 8119 1 
8595 8123 8122 1 
8596 8124 8122 1 
8597 8126 8125 1 
8598 8127 8125 1 
8599 8129 8128 1 
8600 8130 8128 1 
8601 8132 8131 1 
8602 8133 8131 1 
8603 8135 8134 1 
8604 8136 8134 1 
8605 8138 8137 1 
8606 8139 8137 1 
8607 8141 8140 1 
8608 8142 8140 1 
8609 8144 8143 1 
8610 8145 8143 1 
8611 8147 8146 1 
8612 8148 8146 1 
8613 8149 8150 1 
8614 8149 8151 1 
8615 8153 8152 1 
8616 8154 8152 1 
8617 8156 8155 1 
8618 8157 8155 1 
8619 8159 8158 1 
8620 8160 8158 1 
8621 8162 8161 1 
8622 8163 8161 1 
8623 8164 8166 1 
8624 8165 8164 1 
8625 8168 8167 1 
8626 8169 8167 1 
8627 8171 8170 1 
8628 8172 8170 1 
8629 8174 8173 1 
8630 8175 8173 1 
8631 8177 8176 1 
8632 8178 8176 1 
8633 8180 8179 1 
8634 8181 8179 1 
8635 8182 8184 1 
8636 8183 8182 1 
8637 8186 8185 1 
8638 8187 8185 1 
8639 8189 8188 1 
8640 8190 8188 1 
8641 8192 8191 1 
8642 8193 8191 1 
8643 8194 8196 1 
8644 8195 8194 1 
8645 8198 8197 1 
8646 8199 8197 1 
8647 8201 8200 1 
8648 8202 8200 1 
8649 8204 8203 1 
8650 8205 8203 1 
8651 8207 8206 1 
8652 8208 8206 1 
8653 8210 8209 1 
8654 8211 8209 1 
8655 8213 8212 1 
8656 8214 8212 1 
8657 8216 8215 1 
8658 8217 8215 1 
8659 8219 8218 1 
8660 8220 8218 1 
8661 8222 8221 1 
8662 8223 8221 1 
8663 8225 8224 1 
8664 8226 8224 1 
8665 8228 8227 1 
8666 8229 8227 1 
8667 8231 8230 1 
8668 8232 8230 1 
8669 8233 8234 1 
8670 8233 8235 1 
8671 8237 8236 1 
8672 8238 8236 1 
8673 8240 8239 1 
8674 8241 8239 1 
8675 8242 8243 1 
8676 8242 8244 1 
8677 8246 8245 1 
8678 8247 8245 1 
8679 8249 8248 1 
8680 8250 8248 1 
8681 8252 8251 1 
8682 8253 8251 1 
8683 8255 8254 1 
8684 8256 8254 1 
8685 8258 8257 1 
8686 8259 8257 1 
8687 8260 8261 1 
8688 8260 8262 1 
8689 8264 8263 1 
8690 8265 8263 1 
8691 8267 8266 1 
8692 8268 8266 1 
8693 8270 8269 1 
8694 8271 8269 1 
8695 8273 8272 1 
8696 8274 8272 1 
8697 8276 8275 1 
8698 8277 8275 1 
8699 8278 8280 1 
8700 8279 8278 1 
8701 8281 8283 1 
8702 8282 8281 1 
8703 8285 8284 1 
8704 8286 8284 1 
8705 8288 8287 1 
8706 8289 8287 1 
8707 8291 8290 1 
8708 8292 8290 1 
8709 8294 8293 1 
8710 8295 8293 1 
8711 8296 8297 1 
8712 8296 8298 1 
8713 8300 8299 1 
8714 8301 8299 1 
8715 8303 8302 1 
8716 8304 8302 1 
8717 8306 8305 1 
8718 8307 8305 1 
8719 8309 8308 1 
8720 8310 8308 1 
8721 8312 8311 1 
8722 8313 8311 1 
8723 8315 8314 1 
8724 8316 8314 1 
8725 8318 8317 1 
8726 8319 8317 1 
8727 8320 8321 1 
8728 8320 8322 1 
8729 8324 8323 1 
8730 8325 8323 1 
8731 8327 8326 1 
8732 8328 8326 1 
8733 8330 8329 1 
8734 8331 8329 1 
8735 8333 8332 1 
8736 8334 8332 1 
8737 8336 8335 1 
8738 8337 8335 1 
8739 8339 8338 1 
8740 8340 8338 1 
8741 8342 8341 1 
8742 8343 8341 1 
8743 8345 8344 1 
8744 8346 8344 1 
8745 8348 8347 1 
8746 8349 8347 1 
8747 8350 8352 1 
8748 8351 8350 1 
8749 8354 8353 1 
8750 8355 8353 1 
8751 8357 8356 1 
8752 8358 8356 1 
8753 8359 8360 1 
8754 8359 8361 1 
8755 8363 8362 1 
8756 8364 8362 1 
8757 8366 8365 1 
8758 8367 8365 1 
8759 8368 8369 1 
8760 8368 8370 1 
8761 8372 8371 1 
8762 8373 8371 1 
8763 8374 8376 1 
8764 8375 8374 1 
8765 8378 8377 1 
8766 8379 8377 1 
8767 8381 8380 1 
8768 8382 8380 1 
8769 8384 8383 1 
8770 8385 8383 1 
8771 8387 8386 1 
8772 8388 8386 1 
8773 8390 8389 1 
8774 8391 8389 1 
8775 8393 8392 1 
8776 8394 8392 1 
8777 8396 8395 1 
8778 8397 8395 1 
8779 8399 8398 1 
8780 8400 8398 1 
8781 8402 8401 1 
8782 8403 8401 1 
8783 8405 8404 1 
8784 8406 8404 1 
8785 8408 8407 1 
8786 8409 8407 1 
8787 8411 8410 1 
8788 8412 8410 1 
8789 8414 8413 1 
8790 8415 8413 1 
8791 8416 8417 1 
8792 8416 8418 1 
8793 8420 8419 1 
8794 8421 8419 1 
8795 8423 8422 1 
8796 8424 8422 1 
8797 8426 8425 1 
8798 8427 8425 1 
8799 8429 8428 1 
8800 8430 8428 1 
8801 8432 8431 1 
8802 8433 8431 1 
8803 8435 8434 1 
8804 8436 8434 1 
8805 8438 8437 1 
8806 8439 8437 1 
8807 8441 8440 1 
8808 8442 8440 1 
8809 8444 8443 1 
8810 8445 8443 1 
8811 8447 8446 1 
8812 8448 8446 1 
8813 8450 8449 1 
8814 8451 8449 1 
8815 8453 8452 1 
8816 8454 8452 1 
8817 8456 8455 1 
8818 8457 8455 1 
8819 8459 8458 1 
8820 8460 8458 1 
8821 8462 8461 1 
8822 8463 8461 1 
8823 8464 8466 1 
8824 8464 8465 1 
8825 8468 8467 1 
8826 8469 8467 1 
8827 8471 8470 1 
8828 8472 8470 1 
8829 8474 8473 1 
8830 8475 8473 1 
8831 8477 8476 1 
8832 8478 8476 1 
8833 8479 8481 1 
8834 8479 8480 1 
8835 8483 8482 1 
8836 8484 8482 1 
8837 8486 8485 1 
8838 8487 8485 1 
8839 8488 8490 1 
8840 8489 8488 1 
8841 8492 8491 1 
8842 8493 8491 1 
8843 8495 8494 1 
8844 8496 8494 1 
8845 8498 8497 1 
8846 8499 8497 1 
8847 8501 8500 1 
8848 8502 8500 1 
8849 8504 8503 1 
8850 8505 8503 1 
8851 8506 8508 1 
8852 8507 8506 1 
8853 8510 8509 1 
8854 8511 8509 1 
8855 8513 8512 1 
8856 8514 8512 1 
8857 8516 8515 1 
8858 8517 8515 1 
8859 8519 8518 1 
8860 8520 8518 1 
8861 8522 8521 1 
8862 8523 8521 1 
8863 8525 8524 1 
8864 8526 8524 1 
8865 8528 8527 1 
8866 8529 8527 1 
8867 8530 8531 1 
8868 8530 8532 1 
8869 8534 8533 1 
8870 8535 8533 1 
8871 8537 8536 1 
8872 8538 8536 1 
8873 8540 8539 1 
8874 8541 8539 1 
8875 8542 8543 1 
8876 8542 8544 1 
8877 8546 8545 1 
8878 8547 8545 1 
8879 8549 8548 1 
8880 8550 8548 1 
8881 8552 8551 1 
8882 8553 8551 1 
8883 8554 8556 1 
8884 8554 8555 1 
8885 8557 8559 1 
8886 8558 8557 1 
8887 8561 8560 1 
8888 8562 8560 1 
8889 8564 8563 1 
8890 8565 8563 1 
8891 8567 8566 1 
8892 8568 8566 1 
8893 8570 8569 1 
8894 8571 8569 1 
8895 8573 8572 1 
8896 8574 8572 1 
8897 8576 8575 1 
8898 8577 8575 1 
8899 8578 8579 1 
8900 8578 8580 1 
8901 8581 8583 1 
8902 8582 8581 1 
8903 8584 8586 1 
8904 8585 8584 1 
8905 8588 8587 1 
8906 8589 8587 1 
8907 8591 8590 1 
8908 8592 8590 1 
8909 8593 8594 1 
8910 8593 8595 1 
8911 8597 8596 1 
8912 8598 8596 1 
8913 8600 8599 1 
8914 8601 8599 1 
8915 8603 8602 1 
8916 8604 8602 1 
8917 8606 8605 1 
8918 8607 8605 1 
8919 8609 8608 1 
8920 8610 8608 1 
8921 8612 8611 1 
8922 8613 8611 1 
8923 8615 8614 1 
8924 8616 8614 1 
8925 8618 8617 1 
8926 8619 8617 1 
8927 8621 8620 1 
8928 8622 8620 1 
8929 8624 8623 1 
8930 8625 8623 1 
8931 8627 8626 1 
8932 8628 8626 1 
8933 8629 8631 1 
8934 8630 8629 1 
8935 8633 8632 1 
8936 8634 8632 1 
8937 8636 8635 1 
8938 8637 8635 1 
8939 8639 8638 1 
8940 8640 8638 1 
8941 8642 8641 1 
8942 8643 8641 1 
8943 8645 8644 1 
8944 8646 8644 1 
8945 8648 8647 1 
8946 8649 8647 1 
8947 8651 8650 1 
8948 8652 8650 1 
8949 8654 8653 1 
8950 8655 8653 1 
8951 8657 8656 1 
8952 8658 8656 1 
8953 8660 8659 1 
8954 8661 8659 1 
8955 8663 8662 1 
8956 8664 8662 1 
8957 8666 8665 1 
8958 8667 8665 1 
8959 8669 8668 1 
8960 8670 8668 1 
8961 8672 8671 1 
8962 8673 8671 1 
8963 8675 8674 1 
8964 8676 8674 1 
8965 8678 8677 1 
8966 8679 8677 1 
8967 8680 8681 1 
8968 8680 8682 1 
8969 8684 8683 1 
8970 8685 8683 1 
8971 8687 8686 1 
8972 8688 8686 1 
8973 8690 8689 1 
8974 8691 8689 1 
8975 8693 8692 1 
8976 8694 8692 1 
8977 8695 8696 1 
8978 8695 8697 1 
8979 8698 8700 1 
8980 8698 8699 1 
8981 8702 8701 1 
8982 8703 8701 1 
8983 8705 8704 1 
8984 8706 8704 1 
8985 8708 8707 1 
8986 8709 8707 1 
8987 8711 8710 1 
8988 8712 8710 1 
8989 8714 8713 1 
8990 8715 8713 1 
8991 8717 8716 1 
8992 8718 8716 1 
8993 8719 8721 1 
8994 8720 8719 1 
8995 8723 8722 1 
8996 8724 8722 1 
8997 8726 8725 1 
8998 8727 8725 1 
8999 8729 8728 1 
9000 8730 8728 1 
9001 8732 8731 1 
9002 8733 8731 1 
9003 8735 8734 1 
9004 8736 8734 1 
9005 8738 8737 1 
9006 8739 8737 1 
9007 8740 8742 1 
9008 8741 8740 1 
9009 8744 8743 1 
9010 8745 8743 1 
9011 8747 8746 1 
9012 8748 8746 1 
9013 8749 8750 1 
9014 8749 8751 1 
9015 8753 8752 1 
9016 8754 8752 1 
9017 8756 8755 1 
9018 8757 8755 1 
9019 8758 8760 1 
9020 8759 8758 1 
9021 8761 8763 1 
9022 8762 8761 1 
9023 8765 8764 1 
9024 8766 8764 1 
9025 8768 8767 1 
9026 8769 8767 1 
9027 8771 8770 1 
9028 8772 8770 1 
9029 8773 8774 1 
9030 8773 8775 1 
9031 8777 8776 1 
9032 8778 8776 1 
9033 8780 8779 1 
9034 8781 8779 1 
9035 8783 8782 1 
9036 8784 8782 1 
9037 8785 8787 1 
9038 8786 8785 1 
9039 8789 8788 1 
9040 8790 8788 1 
9041 8792 8791 1 
9042 8793 8791 1 
9043 8795 8794 1 
9044 8796 8794 1 
9045 8798 8797 1 
9046 8799 8797 1 
9047 8801 8800 1 
9048 8802 8800 1 
9049 8804 8803 1 
9050 8805 8803 1 
9051 8807 8806 1 
9052 8808 8806 1 
9053 8810 8809 1 
9054 8811 8809 1 
9055 8813 8812 1 
9056 8814 8812 1 
9057 8816 8815 1 
9058 8817 8815 1 
9059 8819 8818 1 
9060 8820 8818 1 
9061 8822 8821 1 
9062 8823 8821 1 
9063 8825 8824 1 
9064 8826 8824 1 
9065 8828 8827 1 
9066 8829 8827 1 
9067 8831 8830 1 
9068 8832 8830 1 
9069 8834 8833 1 
9070 8835 8833 1 
9071 8836 8838 1 
9072 8836 8837 1 
9073 8840 8839 1 
9074 8841 8839 1 
9075 8843 8842 1 
9076 8844 8842 1 
9077 8845 8846 1 
9078 8845 8847 1 
9079 8849 8848 1 
9080 8850 8848 1 
9081 8851 8853 1 
9082 8852 8851 1 
9083 8855 8854 1 
9084 8856 8854 1 
9085 8858 8857 1 
9086 8859 8857 1 
9087 8861 8860 1 
9088 8862 8860 1 
9089 8864 8863 1 
9090 8865 8863 1 
9091 8867 8866 1 
9092 8868 8866 1 
9093 8869 8870 1 
9094 8869 8871 1 
9095 8873 8872 1 
9096 8874 8872 1 
9097 8876 8875 1 
9098 8877 8875 1 
9099 8879 8878 1 
9100 8880 8878 1 
9101 8881 8882 1 
9102 8881 8883 1 
9103 8885 8884 1 
9104 8886 8884 1 
9105 8888 8887 1 
9106 8889 8887 1 
9107 8890 8892 1 
9108 8891 8890 1 
9109 8894 8893 1 
9110 8895 8893 1 
9111 8896 8897 1 
9112 8896 8898 1 
9113 8900 8899 1 
9114 8901 8899 1 
9115 8903 8902 1 
9116 8904 8902 1 
9117 8906 8905 1 
9118 8907 8905 1 
9119 8909 8908 1 
9120 8910 8908 1 
9121 8912 8911 1 
9122 8913 8911 1 
9123 8915 8914 1 
9124 8916 8914 1 
9125 8917 8918 1 
9126 8917 8919 1 
9127 8921 8920 1 
9128 8922 8920 1 
9129 8923 8924 1 
9130 8923 8925 1 
9131 8927 8926 1 
9132 8928 8926 1 
9133 8930 8929 1 
9134 8931 8929 1 
9135 8933 8932 1 
9136 8934 8932 1 
9137 8936 8935 1 
9138 8937 8935 1 
9139 8938 8940 1 
9140 8938 8939 1 
9141 8942 8941 1 
9142 8943 8941 1 
9143 8944 8946 1 
9144 8945 8944 1 
9145 8948 8947 1 
9146 8949 8947 1 
9147 8951 8950 1 
9148 8952 8950 1 
9149 8954 8953 1 
9150 8955 8953 1 
9151 8956 8958 1 
9152 8956 8957 1 
9153 8960 8959 1 
9154 8961 8959 1 
9155 8962 8964 1 
9156 8962 8963 1 
9157 8966 8965 1 
9158 8967 8965 1 
9159 8969 8968 1 
9160 8970 8968 1 
9161 8972 8971 1 
9162 8973 8971 1 
9163 8975 8974 1 
9164 8976 8974 1 
9165 8977 8979 1 
9166 8978 8977 1 
9167 8980 8982 1 
9168 8980 8981 1 
9169 8984 8983 1 
9170 8985 8983 1 
9171 8986 8988 1 
9172 8987 8986 1 
9173 8990 8989 1 
9174 8991 8989 1 
9175 8993 8992 1 
9176 8994 8992 1 
9177 8995 8997 1 
9178 8996 8995 1 
9179 8999 8998 1 
9180 9000 8998 1 
9181 9002 9001 1 
9182 9003 9001 1 
9183 9005 9004 1 
9184 9006 9004 1 
9185 9008 9007 1 
9186 9009 9007 1 
9187 9011 9010 1 
9188 9012 9010 1 
9189 9014 9013 1 
9190 9015 9013 1 
9191 9016 9018 1 
9192 9017 9016 1 
9193 9020 9019 1 
9194 9021 9019 1 
9195 9023 9022 1 
9196 9024 9022 1 
9197 9025 9026 1 
9198 9025 9027 1 
9199 9029 9028 1 
9200 9030 9028 1 
9201 9032 9031 1 
9202 9033 9031 1 
9203 9035 9034 1 
9204 9036 9034 1 
9205 9038 9037 1 
9206 9039 9037 1 
9207 9040 9042 1 
9208 9041 9040 1 
9209 9044 9043 1 
9210 9045 9043 1 
9211 9047 9046 1 
9212 9048 9046 1 
9213 9050 9049 1 
9214 9051 9049 1 
9215 9052 9054 1 
9216 9053 9052 1 
9217 9056 9055 1 
9218 9057 9055 1 
9219 9059 9058 1 
9220 9060 9058 1 
9221 9062 9061 1 
9222 9063 9061 1 
9223 9065 9064 1 
9224 9066 9064 1 
9225 9067 9068 1 
9226 9067 9069 1 
9227 9071 9070 1 
9228 9072 9070 1 
9229 9074 9073 1 
9230 9075 9073 1 
9231 9076 9077 1 
9232 9076 9078 1 
9233 9080 9079 1 
9234 9081 9079 1 
9235 9083 9082 1 
9236 9084 9082 1 
9237 9086 9085 1 
9238 9087 9085 1 
9239 9089 9088 1 
9240 9090 9088 1 
9241 9092 9091 1 
9242 9093 9091 1 
9243 9095 9094 1 
9244 9096 9094 1 
9245 9098 9097 1 
9246 9099 9097 1 
9247 9101 9100 1 
9248 9102 9100 1 
9249 9104 9103 1 
9250 9105 9103 1 
9251 9107 9106 1 
9252 9108 9106 1 
9253 9109 9111 1 
9254 9110 9109 1 
9255 9113 9112 1 
9256 9114 9112 1 
9257 9116 9115 1 
9258 9117 9115 1 
9259 9118 9120 1 
9260 9118 9119 1 
9261 9122 9121 1 
9262 9123 9121 1 
9263 9124 9126 1 
9264 9125 9124 1 
9265 9128 9127 1 
9266 9129 9127 1 
9267 9131 9130 1 
9268 9132 9130 1 
9269 9134 9133 1 
9270 9135 9133 1 
9271 9137 9136 1 
9272 9138 9136 1 
9273 9139 9140 1 
9274 9139 9141 1 
9275 9143 9142 1 
9276 9144 9142 1 
9277 9146 9145 1 
9278 9147 9145 1 
9279 9149 9148 1 
9280 9150 9148 1 
9281 9151 9153 1 
9282 9152 9151 1 
9283 9155 9154 1 
9284 9156 9154 1 
9285 9158 9157 1 
9286 9159 9157 1 
9287 9160 9162 1 
9288 9161 9160 1 
9289 9164 9163 1 
9290 9165 9163 1 
9291 9167 9166 1 
9292 9168 9166 1 
9293 9170 9169 1 
9294 9171 9169 1 
9295 9173 9172 1 
9296 9174 9172 1 
9297 9175 9176 1 
9298 9175 9177 1 
9299 9179 9178 1 
9300 9180 9178 1 
9301 9182 9181 1 
9302 9183 9181 1 
9303 9184 9186 1 
9304 9185 9184 1 
9305 9188 9187 1 
9306 9189 9187 1 
9307 9191 9190 1 
9308 9192 9190 1 
9309 9194 9193 1 
9310 9195 9193 1 
9311 9197 9196 1 
9312 9198 9196 1 
9313 9200 9199 1 
9314 9201 9199 1 
9315 9203 9202 1 
9316 9204 9202 1 
9317 9206 9205 1 
9318 9207 9205 1 
9319 9209 9208 1 
9320 9210 9208 1 
9321 9212 9211 1 
9322 9213 9211 1 
9323 9215 9214 1 
9324 9216 9214 1 
9325 9217 9218 1 
9326 9217 9219 1 
9327 9221 9220 1 
9328 9222 9220 1 
9329 9224 9223 1 
9330 9225 9223 1 
9331 9226 9228 1 
9332 9226 9227 1 
9333 9230 9229 1 
9334 9231 9229 1 
9335 9233 9232 1 
9336 9234 9232 1 
9337 9235 9236 1 
9338 9235 9237 1 
9339 9239 9238 1 
9340 9240 9238 1 
9341 9241 9243 1 
9342 9241 9242 1 
9343 9245 9244 1 
9344 9246 9244 1 
9345 9248 9247 1 
9346 9249 9247 1 
9347 9251 9250 1 
9348 9252 9250 1 
9349 9253 9255 1 
9350 9253 9254 1 
9351 9257 9256 1 
9352 9258 9256 1 
9353 9259 9261 1 
9354 9260 9259 1 
9355 9263 9262 1 
9356 9264 9262 1 
9357 9266 9265 1 
9358 9267 9265 1 
9359 9269 9268 1 
9360 9270 9268 1 
9361 9272 9271 1 
9362 9273 9271 1 
9363 9274 9276 1 
9364 9275 9274 1 
9365 9278 9277 1 
9366 9279 9277 1 
9367 9281 9280 1 
9368 9282 9280 1 
9369 9284 9283 1 
9370 9285 9283 1 
9371 9287 9286 1 
9372 9288 9286 1 
9373 9290 9289 1 
9374 9291 9289 1 
9375 9292 9294 1 
9376 9292 9293 1 
9377 9296 9295 1 
9378 9297 9295 1 
9379 9298 9300 1 
9380 9299 9298 1 
9381 9302 9301 1 
9382 9303 9301 1 
9383 9305 9304 1 
9384 9306 9304 1 
9385 9307 9309 1 
9386 9308 9307 1 
9387 9311 9310 1 
9388 9312 9310 1 
9389 9314 9313 1 
9390 9315 9313 1 
9391 9317 9316 1 
9392 9318 9316 1 
9393 9320 9319 1 
9394 9321 9319 1 
9395 9323 9322 1 
9396 9324 9322 1 
9397 9326 9325 1 
9398 9327 9325 1 
9399 9329 9328 1 
9400 9330 9328 1 
9401 9332 9331 1 
9402 9333 9331 1 
9403 9335 9334 1 
9404 9336 9334 1 
9405 9338 9337 1 
9406 9339 9337 1 
9407 9341 9340 1 
9408 9342 9340 1 
9409 9344 9343 1 
9410 9345 9343 1 
9411 9346 9347 1 
9412 9346 9348 1 
9413 9350 9349 1 
9414 9351 9349 1 
9415 9353 9352 1 
9416 9354 9352 1 
9417 9356 9355 1 
9418 9357 9355 1 
9419 9359 9358 1 
9420 9360 9358 1 
9421 9362 9361 1 
9422 9363 9361 1 
9423 9365 9364 1 
9424 9366 9364 1 
9425 9368 9367 1 
9426 9369 9367 1 
9427 9370 9372 1 
9428 9371 9370 1 
9429 9374 9373 1 
9430 9375 9373 1 
9431 9377 9376 1 
9432 9378 9376 1 
9433 9380 9379 1 
9434 9381 9379 1 
9435 9382 9383 1 
9436 9382 9384 1 
9437 9386 9385 1 
9438 9387 9385 1 
9439 9388 9390 1 
9440 9389 9388 1 
9441 9392 9391 1 
9442 9393 9391 1 
9443 9395 9394 1 
9444 9396 9394 1 
9445 9397 9399 1 
9446 9397 9398 1 
9447 9401 9400 1 
9448 9402 9400 1 
9449 9404 9403 1 
9450 9405 9403 1 
9451 9407 9406 1 
9452 9408 9406 1 
9453 9410 9409 1 
9454 9411 9409 1 
9455 9413 9412 1 
9456 9414 9412 1 
9457 9416 9415 1 
9458 9417 9415 1 
9459 9419 9418 1 
9460 9420 9418 1 
9461 9422 9421 1 
9462 9423 9421 1 
9463 9425 9424 1 
9464 9426 9424 1 
9465 9428 9427 1 
9466 9429 9427 1 
9467 9431 9430 1 
9468 9432 9430 1 
9469 9434 9433 1 
9470 9435 9433 1 
9471 9437 9436 1 
9472 9438 9436 1 
9473 9440 9439 1 
9474 9441 9439 1 
9475 9443 9442 1 
9476 9444 9442 1 
9477 9446 9445 1 
9478 9447 9445 1 
9479 9449 9448 1 
9480 9450 9448 1 
9481 9451 9452 1 
9482 9451 9453 1 
9483 9455 9454 1 
9484 9456 9454 1 
9485 9458 9457 1 
9486 9459 9457 1 
9487 9461 9460 1 
9488 9462 9460 1 
9489 9464 9463 1 
9490 9465 9463 1 
9491 9467 9466 1 
9492 9468 9466 1 
9493 9469 9471 1 
9494 9470 9469 1 
9495 9473 9472 1 
9496 9474 9472 1 
9497 9475 9477 1 
9498 9476 9475 1 
9499 9479 9478 1 
9500 9480 9478 1 
9501 9482 9481 1 
9502 9483 9481 1 
9503 9485 9484 1 
9504 9486 9484 1 
9505 9488 9487 1 
9506 9489 9487 1 
9507 9491 9490 1 
9508 9492 9490 1 
9509 9494 9493 1 
9510 9495 9493 1 
9511 9497 9496 1 
9512 9498 9496 1 
9513 9499 9500 1 
9514 9499 9501 1 
9515 9503 9502 1 
9516 9504 9502 1 
9517 9506 9505 1 
9518 9507 9505 1 
9519 9508 9509 1 
9520 9508 9510 1 
9521 9511 9513 1 
9522 9511 9512 1 
9523 9515 9514 1 
9524 9516 9514 1 
9525 9518 9517 1 
9526 9519 9517 1 
9527 9521 9520 1 
9528 9522 9520 1 
9529 9524 9523 1 
9530 9525 9523 1 
9531 9527 9526 1 
9532 9528 9526 1 
9533 9530 9529 1 
9534 9531 9529 1 
9535 9532 9533 1 
9536 9532 9534 1 
9537 9536 9535 1 
9538 9537 9535 1 
9539 9539 9538 1 
9540 9540 9538 1 
9541 9542 9541 1 
9542 9543 9541 1 
9543 9545 9544 1 
9544 9546 9544 1 
9545 9548 9547 1 
9546 9549 9547 1 
9547 9551 9550 1 
9548 9552 9550 1 
9549 9553 9554 1 
9550 9553 9555 1 
9551 9557 9556 1 
9552 9558 9556 1 
9553 9560 9559 1 
9554 9561 9559 1 
9555 9563 9562 1 
9556 9564 9562 1 
9557 9566 9565 1 
9558 9567 9565 1 
9559 9569 9568 1 
9560 9570 9568 1 
9561 9572 9571 1 
9562 9573 9571 1 
9563 9574 9575 1 
9564 9574 9576 1 
9565 9578 9577 1 
9566 9579 9577 1 
9567 9581 9580 1 
9568 9582 9580 1 
9569 9584 9583 1 
9570 9585 9583 1 
9571 9587 9586 1 
9572 9588 9586 1 
9573 9590 9589 1 
9574 9591 9589 1 
9575 9592 9594 1 
9576 9593 9592 1 
9577 9596 9595 1 
9578 9597 9595 1 
9579 9598 9600 1 
9580 9598 9599 1 
9581 9602 9601 1 
9582 9603 9601 1 
9583 9605 9604 1 
9584 9606 9604 1 
9585 9608 9607 1 
9586 9609 9607 1 
9587 9611 9610 1 
9588 9612 9610 1 
9589 9614 9613 1 
9590 9615 9613 1 
9591 9616 9618 1 
9592 9617 9616 1 
9593 9620 9619 1 
9594 9621 9619 1 
9595 9623 9622 1 
9596 9624 9622 1 
9597 9625 9627 1 
9598 9625 9626 1 
9599 9629 9628 1 
9600 9630 9628 1 
9601 9632 9631 1 
9602 9633 9631 1 
9603 9635 9634 1 
9604 9636 9634 1 
9605 9638 9637 1 
9606 9639 9637 1 
9607 9641 9640 1 
9608 9642 9640 1 
9609 9644 9643 1 
9610 9645 9643 1 
9611 9647 9646 1 
9612 9648 9646 1 
9613 9650 9649 1 
9614 9651 9649 1 
9615 9653 9652 1 
9616 9654 9652 1 
9617 9655 9657 1 
9618 9656 9655 1 
9619 9658 9659 1 
9620 9658 9660 1 
9621 9661 9663 1 
9622 9662 9661 1 
9623 9665 9664 1 
9624 9666 9664 1 
9625 9667 9668 1 
9626 9667 9669 1 
9627 9670 9672 1 
9628 9671 9670 1 
9629 9673 9675 1 
9630 9674 9673 1 
9631 9677 9676 1 
9632 9678 9676 1 
9633 9680 9679 1 
9634 9681 9679 1 
9635 9683 9682 1 
9636 9684 9682 1 
9637 9685 9686 1 
9638 9685 9687 1 
9639 9689 9688 1 
9640 9690 9688 1 
9641 9692 9691 1 
9642 9693 9691 1 
9643 9695 9694 1 
9644 9696 9694 1 
9645 9698 9697 1 
9646 9699 9697 1 
9647 9701 9700 1 
9648 9702 9700 1 
9649 9703 9704 1 
9650 9703 9705 1 
9651 9707 9706 1 
9652 9708 9706 1 
9653 9710 9709 1 
9654 9711 9709 1 
9655 9713 9712 1 
9656 9714 9712 1 
9657 9715 9716 1 
9658 9715 9717 1 
9659 9719 9718 1 
9660 9720 9718 1 
9661 9722 9721 1 
9662 9723 9721 1 
9663 9725 9724 1 
9664 9726 9724 1 
9665 9727 9729 1 
9666 9727 9728 1 
9667 9731 9730 1 
9668 9732 9730 1 
9669 9734 9733 1 
9670 9735 9733 1 
9671 9737 9736 1 
9672 9738 9736 1 
9673 9740 9739 1 
9674 9741 9739 1 
9675 9743 9742 1 
9676 9744 9742 1 
9677 9745 9746 1 
9678 9745 9747 1 
9679 9749 9748 1 
9680 9750 9748 1 
9681 9752 9751 1 
9682 9753 9751 1 
9683 9755 9754 1 
9684 9756 9754 1 
9685 9758 9757 1 
9686 9759 9757 1 
9687 9760 9762 1 
9688 9761 9760 1 
9689 9764 9763 1 
9690 9765 9763 1 
9691 9766 9767 1 
9692 9766 9768 1 
9693 9769 9771 1 
9694 9770 9769 1 
9695 9773 9772 1 
9696 9774 9772 1 
9697 9776 9775 1 
9698 9777 9775 1 
9699 9779 9778 1 
9700 9780 9778 1 
9701 9782 9781 1 
9702 9783 9781 1 
9703 9784 9786 1 
9704 9785 9784 1 
9705 9788 9787 1 
9706 9789 9787 1 
9707 9790 9791 1 
9708 9790 9792 1 
9709 9793 9795 1 
9710 9794 9793 1 
9711 9797 9796 1 
9712 9798 9796 1 
9713 9800 9799 1 
9714 9801 9799 1 
9715 9803 9802 1 
9716 9804 9802 1 
9717 9806 9805 1 
9718 9807 9805 1 
9719 9809 9808 1 
9720 9810 9808 1 
9721 9812 9811 1 
9722 9813 9811 1 
9723 9815 9814 1 
9724 9816 9814 1 
9725 9818 9817 1 
9726 9819 9817 1 
9727 9821 9820 1 
9728 9822 9820 1 
9729 9824 9823 1 
9730 9825 9823 1 
9731 9827 9826 1 
9732 9828 9826 1 
9733 9830 9829 1 
9734 9831 9829 1 
9735 9832 9834 1 
9736 9833 9832 1 
9737 9836 9835 1 
9738 9837 9835 1 
9739 9839 9838 1 
9740 9840 9838 1 
9741 9842 9841 1 
9742 9843 9841 1 
9743 9845 9844 1 
9744 9846 9844 1 
9745 9848 9847 1 
9746 9849 9847 1 
9747 9851 9850 1 
9748 9852 9850 1 
9749 9854 9853 1 
9750 9855 9853 1 
9751 9857 9856 1 
9752 9858 9856 1 
9753 9860 9859 1 
9754 9861 9859 1 
9755 9863 9862 1 
9756 9864 9862 1 
9757 9866 9865 1 
9758 9867 9865 1 
9759 9869 9868 1 
9760 9870 9868 1 
9761 9872 9871 1 
9762 9873 9871 1 
9763 9875 9874 1 
9764 9876 9874 1 
9765 9878 9877 1 
9766 9879 9877 1 
9767 9881 9880 1 
9768 9882 9880 1 
9769 9884 9883 1 
9770 9885 9883 1 
9771 9887 9886 1 
9772 9888 9886 1 
9773 9890 9889 1 
9774 9891 9889 1 
9775 9893 9892 1 
9776 9894 9892 1 
9777 9896 9895 1 
9778 9897 9895 1 
9779 9899 9898 1 
9780 9900 9898 1 
9781 9902 9901 1 
9782 9903 9901 1 
9783 9904 9905 1 
9784 9904 9906 1 
9785 9908 9907 1 
9786 9909 9907 1 
9787 9911 9910 1 
9788 9912 9910 1 
9789 9914 9913 1 
9790 9915 9913 1 
9791 9917 9916 1 
9792 9918 9916 1 
9793 9920 9919 1 
9794 9921 9919 1 
9795 9923 9922 1 
9796 9924 9922 1 
9797 9926 9925 1 
9798 9927 9925 1 
9799 9929 9928 1 
9800 9930 9928 1 
9801 9932 9931 1 
9802 9933 9931 1 
9803 9935 9934 1 
9804 9936 9934 1 
9805 9938 9937 1 
9806 9939 9937 1 
9807 9941 9940 1 
9808 9942 9940 1 
9809 9944 9943 1 
9810 9945 9943 1 
9811 9947 9946 1 
9812 9948 9946 1 
9813 9950 9949 1 
9814 9951 9949 1 
9815 9953 9952 1 
9816 9954 9952 1 
9817 9956 9955 1 
9818 9957 9955 1 
9819 9959 9958 1 
9820 9960 9958 1 
9821 9962 9961 1 
9822 9963 9961 1 
9823 9965 9964 1 
9824 9966 9964 1 
9825 9968 9967 1 
9826 9969 9967 1 
9827 9970 9972 1 
9828 9970 9971 1 
9829 9974 9973 1 
9830 9975 9973 1 
9831 9977 9976 1 
9832 9978 9976 1 
9833 9980 9979 1 
9834 9981 9979 1 
9835 9983 9982 1 
9836 9984 9982 1 
9837 9986 9985 1 
9838 9987 9985 1 
9839 9989 9988 1 
9840 9990 9988 1 
9841 9991 9992 1 
9842 9991 9993 1 
9843 9995 9994 1 
9844 9996 9994 1 
9845 9998 9997 1 
9846 9999 9997 1 
9847 10001 10000 1 
9848 10002 10000 1 
9849 10004 10003 1 
9850 10005 10003 1 
9851 10006 10008 1 
9852 10007 10006 1 
9853 10009 10010 1 
9854 10009 10011 1 
9855 10013 10012 1 
9856 10014 10012 1 
9857 10015 10016 1 
9858 10015 10017 1 
9859 10018 10019 1 
9860 10018 10020 1 
9861 10022 10021 1 
9862 10023 10021 1 
9863 10025 10024 1 
9864 10026 10024 1 
9865 10028 10027 1 
9866 10029 10027 1 
9867 10031 10030 1 
9868 10032 10030 1 
9869 10034 10033 1 
9870 10035 10033 1 
9871 10037 10036 1 
9872 10038 10036 1 
9873 10040 10039 1 
9874 10041 10039 1 
9875 10042 10044 1 
9876 10043 10042 1 
9877 10046 10045 1 
9878 10047 10045 1 
9879 10049 10048 1 
9880 10050 10048 1 
9881 10052 10051 1 
9882 10053 10051 1 
9883 10054 10056 1 
9884 10055 10054 1 
9885 10058 10057 1 
9886 10059 10057 1 
9887 10061 10060 1 
9888 10062 10060 1 
9889 10064 10063 1 
9890 10065 10063 1 
9891 10067 10066 1 
9892 10068 10066 1 
9893 10070 10069 1 
9894 10071 10069 1 
9895 10072 10074 1 
9896 10073 10072 1 
9897 10075 10077 1 
9898 10076 10075 1 
9899 10079 10078 1 
9900 10080 10078 1 
9901 10082 10081 1 
9902 10083 10081 1 
9903 10085 10084 1 
9904 10086 10084 1 
9905 10088 10087 1 
9906 10089 10087 1 
9907 10090 10091 1 
9908 10090 10092 1 
9909 10094 10093 1 
9910 10095 10093 1 
9911 10097 10096 1 
9912 10098 10096 1 
9913 10099 10101 1 
9914 10100 10099 1 
9915 10103 10102 1 
9916 10104 10102 1 
9917 10106 10105 1 
9918 10107 10105 1 
9919 10109 10108 1 
9920 10110 10108 1 
9921 10111 10113 1 
9922 10111 10112 1 
9923 10115 10114 1 
9924 10116 10114 1 
9925 10118 10117 1 
9926 10119 10117 1 
9927 10120 10122 1 
9928 10121 10120 1 
9929 10124 10123 1 
9930 10125 10123 1 
9931 10126 10127 1 
9932 10126 10128 1 
9933 10130 10129 1 
9934 10131 10129 1 
9935 10133 10132 1 
9936 10134 10132 1 
9937 10135 10136 1 
9938 10135 10137 1 
9939 10139 10138 1 
9940 10140 10138 1 
9941 10142 10141 1 
9942 10143 10141 1 
9943 10145 10144 1 
9944 10146 10144 1 
9945 10148 10147 1 
9946 10149 10147 1 
9947 10151 10150 1 
9948 10152 10150 1 
9949 10154 10153 1 
9950 10155 10153 1 
9951 10157 10156 1 
9952 10158 10156 1 
9953 10159 10160 1 
9954 10159 10161 1 
9955 10162 10163 1 
9956 10162 10164 1 
9957 10166 10165 1 
9958 10167 10165 1 
9959 10169 10168 1 
9960 10170 10168 1 
9961 10172 10171 1 
9962 10173 10171 1 
9963 10175 10174 1 
9964 10176 10174 1 
9965 10177 10179 1 
9966 10178 10177 1 
9967 10181 10180 1 
9968 10182 10180 1 
9969 10184 10183 1 
9970 10185 10183 1 
9971 10187 10186 1 
9972 10188 10186 1 
9973 10189 10191 1 
9974 10190 10189 1 
9975 10193 10192 1 
9976 10194 10192 1 
9977 10196 10195 1 
9978 10197 10195 1 
9979 10199 10198 1 
9980 10200 10198 1 
9981 10201 10203 1 
9982 10201 10202 1 
9983 10205 10204 1 
9984 10206 10204 1 
9985 10207 10209 1 
9986 10208 10207 1 
9987 10211 10210 1 
9988 10212 10210 1 
9989 10214 10213 1 
9990 10215 10213 1 
9991 10217 10216 1 
9992 10218 10216 1 
9993 10220 10219 1 
9994 10221 10219 1 
9995 10222 10224 1 
9996 10223 10222 1 
9997 10226 10225 1 
9998 10227 10225 1 
9999 10229 10228 1 
10000 10230 10228 1 
10001 10232 10231 1 
10002 10233 10231 1 
10003 10234 10236 1 
10004 10235 10234 1 
10005 10238 10237 1 
10006 10239 10237 1 
10007 10241 10240 1 
10008 10242 10240 1 
10009 10243 10245 1 
10010 10244 10243 1 
10011 10247 10246 1 
10012 10248 10246 1 
10013 10250 10249 1 
10014 10251 10249 1 
10015 10253 10252 1 
10016 10254 10252 1 
10017 10256 10255 1 
10018 10257 10255 1 
10019 10259 10258 1 
10020 10260 10258 1 
10021 10262 10261 1 
10022 10263 10261 1 
10023 10265 10264 1 
10024 10266 10264 1 
10025 10268 10267 1 
10026 10269 10267 1 
10027 10271 10270 1 
10028 10272 10270 1 
10029 10274 10273 1 
10030 10275 10273 1 
10031 10277 10276 1 
10032 10278 10276 1 
10033 10280 10279 1 
10034 10281 10279 1 
10035 10283 10282 1 
10036 10284 10282 1 
10037 10286 10285 1 
10038 10287 10285 1 
10039 10288 10289 1 
10040 10288 10290 1 
10041 10292 10291 1 
10042 10293 10291 1 
10043 10295 10294 1 
10044 10296 10294 1 
10045 10298 10297 1 
10046 10299 10297 1 
10047 10301 10300 1 
10048 10302 10300 1 
10049 10304 10303 1 
10050 10305 10303 1 
10051 10306 10308 1 
10052 10307 10306 1 
10053 10310 10309 1 
10054 10311 10309 1 
10055 10313 10312 1 
10056 10314 10312 1 
10057 10316 10315 1 
10058 10317 10315 1 
10059 10318 10320 1 
10060 10319 10318 1 
10061 10322 10321 1 
10062 10323 10321 1 
10063 10325 10324 1 
10064 10326 10324 1 
10065 10328 10327 1 
10066 10329 10327 1 
10067 10331 10330 1 
10068 10332 10330 1 
10069 10333 10335 1 
10070 10334 10333 1 
10071 10337 10336 1 
10072 10338 10336 1 
10073 10340 10339 1 
10074 10341 10339 1 
10075 10343 10342 1 
10076 10344 10342 1 
10077 10346 10345 1 
10078 10347 10345 1 
10079 10348 10350 1 
10080 10349 10348 1 
10081 10352 10351 1 
10082 10353 10351 1 
10083 10355 10354 1 
10084 10356 10354 1 
10085 10358 10357 1 
10086 10359 10357 1 
10087 10361 10360 1 
10088 10362 10360 1 
10089 10363 10365 1 
10090 10364 10363 1 
10091 10367 10366 1 
10092 10368 10366 1 
10093 10370 10369 1 
10094 10371 10369 1 
10095 10372 10373 1 
10096 10372 10374 1 
10097 10376 10375 1 
10098 10377 10375 1 
10099 10379 10378 1 
10100 10380 10378 1 
10101 10382 10381 1 
10102 10383 10381 1 
10103 10385 10384 1 
10104 10386 10384 1 
10105 10388 10387 1 
10106 10389 10387 1 
10107 10391 10390 1 
10108 10392 10390 1 
10109 10394 10393 1 
10110 10395 10393 1 
10111 10396 10397 1 
10112 10396 10398 1 
10113 10400 10399 1 
10114 10401 10399 1 
10115 10403 10402 1 
10116 10404 10402 1 
10117 10406 10405 1 
10118 10407 10405 1 
10119 10409 10408 1 
10120 10410 10408 1 
10121 10412 10411 1 
10122 10413 10411 1 
10123 10415 10414 1 
10124 10416 10414 1 
10125 10418 10417 1 
10126 10419 10417 1 
10127 10421 10420 1 
10128 10422 10420 1 
10129 10424 10423 1 
10130 10425 10423 1 
10131 10427 10426 1 
10132 10428 10426 1 
10133 10430 10429 1 
10134 10431 10429 1 
10135 10433 10432 1 
10136 10434 10432 1 
10137 10436 10435 1 
10138 10437 10435 1 
10139 10439 10438 1 
10140 10440 10438 1 
10141 10442 10441 1 
10142 10443 10441 1 
10143 10445 10444 1 
10144 10446 10444 1 
10145 10447 10448 1 
10146 10447 10449 1 
10147 10451 10450 1 
10148 10452 10450 1 
10149 10454 10453 1 
10150 10455 10453 1 
10151 10457 10456 1 
10152 10458 10456 1 
10153 10460 10459 1 
10154 10461 10459 1 
10155 10463 10462 1 
10156 10464 10462 1 
10157 10466 10465 1 
10158 10467 10465 1 
10159 10469 10468 1 
10160 10470 10468 1 
10161 10472 10471 1 
10162 10473 10471 1 
10163 10475 10474 1 
10164 10476 10474 1 
10165 10478 10477 1 
10166 10479 10477 1 
10167 10480 10481 1 
10168 10480 10482 1 
10169 10484 10483 1 
10170 10485 10483 1 
10171 10487 10486 1 
10172 10488 10486 1 
10173 10490 10489 1 
10174 10491 10489 1 
10175 10493 10492 1 
10176 10494 10492 1 
10177 10496 10495 1 
10178 10497 10495 1 
10179 10499 10498 1 
10180 10500 10498 1 
10181 10501 10502 1 
10182 10501 10503 1 
10183 10504 10506 1 
10184 10505 10504 1 
10185 10507 10509 1 
10186 10507 10508 1 
10187 10511 10510 1 
10188 10512 10510 1 
10189 10514 10513 1 
10190 10515 10513 1 
10191 10516 10518 1 
10192 10517 10516 1 
10193 10520 10519 1 
10194 10521 10519 1 
10195 10522 10523 1 
10196 10522 10524 1 
10197 10526 10525 1 
10198 10527 10525 1 
10199 10529 10528 1 
10200 10530 10528 1 
10201 10532 10531 1 
10202 10533 10531 1 
10203 10535 10534 1 
10204 10536 10534 1 
10205 10538 10537 1 
10206 10539 10537 1 
10207 10540 10541 1 
10208 10540 10542 1 
10209 10543 10544 1 
10210 10543 10545 1 
10211 10546 10548 1 
10212 10547 10546 1 
10213 10550 10549 1 
10214 10551 10549 1 
10215 10552 10554 1 
10216 10553 10552 1 
10217 10556 10555 1 
10218 10557 10555 1 
10219 10559 10558 1 
10220 10560 10558 1 
10221 10562 10561 1 
10222 10563 10561 1 
10223 10565 10564 1 
10224 10566 10564 1 
10225 10567 10569 1 
10226 10568 10567 1 
10227 10571 10570 1 
10228 10572 10570 1 
10229 10573 10574 1 
10230 10573 10575 1 
10231 10577 10576 1 
10232 10578 10576 1 
10233 10580 10579 1 
10234 10581 10579 1 
10235 10582 10584 1 
10236 10583 10582 1 
10237 10586 10585 1 
10238 10587 10585 1 
10239 10589 10588 1 
10240 10590 10588 1 
10241 10592 10591 1 
10242 10593 10591 1 
10243 10595 10594 1 
10244 10596 10594 1 
10245 10597 10599 1 
10246 10598 10597 1 
10247 10601 10600 1 
10248 10602 10600 1 
10249 10604 10603 1 
10250 10605 10603 1 
10251 10607 10606 1 
10252 10608 10606 1 
10253 10610 10609 1 
10254 10611 10609 1 
10255 10613 10612 1 
10256 10614 10612 1 
10257 10616 10615 1 
10258 10617 10615 1 
10259 10619 10618 1 
10260 10620 10618 1 
10261 10622 10621 1 
10262 10623 10621 1 
10263 10625 10624 1 
10264 10626 10624 1 
10265 10628 10627 1 
10266 10629 10627 1 
10267 10631 10630 1 
10268 10632 10630 1 
10269 10634 10633 1 
10270 10635 10633 1 
10271 10637 10636 1 
10272 10638 10636 1 
10273 10640 10639 1 
10274 10641 10639 1 
10275 10642 10644 1 
10276 10643 10642 1 
10277 10645 10647 1 
10278 10646 10645 1 
10279 10649 10648 1 
10280 10650 10648 1 
10281 10652 10651 1 
10282 10653 10651 1 
10283 10655 10654 1 
10284 10656 10654 1 
10285 10658 10657 1 
10286 10659 10657 1 
10287 10661 10660 1 
10288 10662 10660 1 
10289 10664 10663 1 
10290 10665 10663 1 
10291 10667 10666 1 
10292 10668 10666 1 
10293 10669 10671 1 
10294 10670 10669 1 
10295 10672 10674 1 
10296 10673 10672 1 
10297 10675 10677 1 
10298 10676 10675 1 
10299 10679 10678 1 
10300 10680 10678 1 
10301 10682 10681 1 
10302 10683 10681 1 
10303 10685 10684 1 
10304 10686 10684 1 
10305 10687 10689 1 
10306 10687 10688 1 
10307 10691 10690 1 
10308 10692 10690 1 
10309 10694 10693 1 
10310 10695 10693 1 
10311 10697 10696 1 
10312 10698 10696 1 
10313 10700 10699 1 
10314 10701 10699 1 
10315 10703 10702 1 
10316 10704 10702 1 
10317 10706 10705 1 
10318 10707 10705 1 
10319 10708 10709 1 
10320 10708 10710 1 
10321 10712 10711 1 
10322 10713 10711 1 
10323 10715 10714 1 
10324 10716 10714 1 
10325 10718 10717 1 
10326 10719 10717 1 
10327 10721 10720 1 
10328 10722 10720 1 
10329 10724 10723 1 
10330 10725 10723 1 
10331 10727 10726 1 
10332 10728 10726 1 
10333 10730 10729 1 
10334 10731 10729 1 
10335 10733 10732 1 
10336 10734 10732 1 
10337 10736 10735 1 
10338 10737 10735 1 
10339 10739 10738 1 
10340 10740 10738 1 
10341 10742 10741 1 
10342 10743 10741 1 
10343 10745 10744 1 
10344 10746 10744 1 
10345 10748 10747 1 
10346 10749 10747 1 
10347 10750 10752 1 
10348 10751 10750 1 
10349 10753 10754 1 
10350 10753 10755 1 
10351 10757 10756 1 
10352 10758 10756 1 
10353 10760 10759 1 
10354 10761 10759 1 
10355 10763 10762 1 
10356 10764 10762 1 
10357 10766 10765 1 
10358 10767 10765 1 
10359 10769 10768 1 
10360 10770 10768 1 
10361 10772 10771 1 
10362 10773 10771 1 
10363 10775 10774 1 
10364 10776 10774 1 
10365 10778 10777 1 
10366 10779 10777 1 
10367 10781 10780 1 
10368 10782 10780 1 
10369 10784 10783 1 
10370 10785 10783 1 
10371 10787 10786 1 
10372 10788 10786 1 
10373 10790 10789 1 
10374 10791 10789 1 
10375 10793 10792 1 
10376 10794 10792 1 
10377 10796 10795 1 
10378 10797 10795 1 
10379 10799 10798 1 
10380 10800 10798 1 
10381 10802 10801 1 
10382 10803 10801 1 
10383 10805 10804 1 
10384 10806 10804 1 
10385 10808 10807 1 
10386 10809 10807 1 
10387 10811 10810 1 
10388 10812 10810 1 
10389 10814 10813 1 
10390 10815 10813 1 
10391 10817 10816 1 
10392 10818 10816 1 
10393 10820 10819 1 
10394 10821 10819 1 
10395 10823 10822 1 
10396 10824 10822 1 
10397 10826 10825 1 
10398 10827 10825 1 
10399 10829 10828 1 
10400 10830 10828 1 
10401 10832 10831 1 
10402 10833 10831 1 
10403 10834 10835 1 
10404 10834 10836 1 
10405 10838 10837 1 
10406 10839 10837 1 
10407 10841 10840 1 
10408 10842 10840 1 
10409 10844 10843 1 
10410 10845 10843 1 
10411 10847 10846 1 
10412 10848 10846 1 
10413 10850 10849 1 
10414 10851 10849 1 
10415 10853 10852 1 
10416 10854 10852 1 
10417 10856 10855 1 
10418 10857 10855 1 
10419 10859 10858 1 
10420 10860 10858 1 
10421 10862 10861 1 
10422 10863 10861 1 
10423 10864 10865 1 
10424 10864 10866 1 
10425 10867 10868 1 
10426 10867 10869 1 
10427 10870 10871 1 
10428 10870 10872 1 
10429 10874 10873 1 
10430 10875 10873 1 
10431 10876 10878 1 
10432 10876 10877 1 
10433 10880 10879 1 
10434 10881 10879 1 
10435 10883 10882 1 
10436 10884 10882 1 
10437 10886 10885 1 
10438 10887 10885 1 
10439 10889 10888 1 
10440 10890 10888 1 
10441 10892 10891 1 
10442 10893 10891 1 
10443 10895 10894 1 
10444 10896 10894 1 
10445 10898 10897 1 
10446 10899 10897 1 
10447 10901 10900 1 
10448 10902 10900 1 
10449 10904 10903 1 
10450 10905 10903 1 
10451 10906 10908 1 
10452 10907 10906 1 
10453 10909 10910 1 
10454 10909 10911 1 
10455 10912 10914 1 
10456 10913 10912 1 
10457 10916 10915 1 
10458 10917 10915 1 
10459 10919 10918 1 
10460 10920 10918 1 
10461 10922 10921 1 
10462 10923 10921 1 
10463 10925 10924 1 
10464 10926 10924 1 
10465 10927 10929 1 
10466 10928 10927 1 
10467 10931 10930 1 
10468 10932 10930 1 
10469 10934 10933 1 
10470 10935 10933 1 
10471 10937 10936 1 
10472 10938 10936 1 
10473 10940 10939 1 
10474 10941 10939 1 
10475 10943 10942 1 
10476 10944 10942 1 
10477 10945 10946 1 
10478 10945 10947 1 
10479 10949 10948 1 
10480 10950 10948 1 
10481 10952 10951 1 
10482 10953 10951 1 
10483 10954 10955 1 
10484 10954 10956 1 
10485 10958 10957 1 
10486 10959 10957 1 
10487 10960 10962 1 
10488 10961 10960 1 
10489 10963 10965 1 
10490 10964 10963 1 
10491 10967 10966 1 
10492 10968 10966 1 
10493 10970 10969 1 
10494 10971 10969 1 
10495 10973 10972 1 
10496 10974 10972 1 
10497 10976 10975 1 
10498 10977 10975 1 
10499 10979 10978 1 
10500 10980 10978 1 
10501 10982 10981 1 
10502 10983 10981 1 
10503 10985 10984 1 
10504 10986 10984 1 
10505 10988 10987 1 
10506 10989 10987 1 
10507 10991 10990 1 
10508 10992 10990 1 
10509 10994 10993 1 
10510 10995 10993 1 
10511 10997 10996 1 
10512 10998 10996 1 
10513 11000 10999 1 
10514 11001 10999 1 
10515 11003 11002 1 
10516 11004 11002 1 
10517 11005 11006 1 
10518 11005 11007 1 
10519 11009 11008 1 
10520 11010 11008 1 
10521 11012 11011 1 
10522 11013 11011 1 
10523 11015 11014 1 
10524 11016 11014 1 
10525 11018 11017 1 
10526 11019 11017 1 
10527 11021 11020 1 
10528 11022 11020 1 
10529 11024 11023 1 
10530 11025 11023 1 
10531 11027 11026 1 
10532 11028 11026 1 
10533 11029 11030 1 
10534 11029 11031 1 
10535 11033 11032 1 
10536 11034 11032 1 
10537 11036 11035 1 
10538 11037 11035 1 
10539 11039 11038 1 
10540 11040 11038 1 
10541 11041 11043 1 
10542 11042 11041 1 
10543 11045 11044 1 
10544 11046 11044 1 
10545 11048 11047 1 
10546 11049 11047 1 
10547 11051 11050 1 
10548 11052 11050 1 
10549 11054 11053 1 
10550 11055 11053 1 
10551 11057 11056 1 
10552 11058 11056 1 
10553 11060 11059 1 
10554 11061 11059 1 
10555 11062 11063 1 
10556 11062 11064 1 
10557 11066 11065 1 
10558 11067 11065 1 
10559 11069 11068 1 
10560 11070 11068 1 
10561 11072 11071 1 
10562 11073 11071 1 
10563 11075 11074 1 
10564 11076 11074 1 
10565 11078 11077 1 
10566 11079 11077 1 
10567 11081 11080 1 
10568 11082 11080 1 
10569 11083 11085 1 
10570 11083 11084 1 
10571 11087 11086 1 
10572 11088 11086 1 
10573 11090 11089 1 
10574 11091 11089 1 
10575 11093 11092 1 
10576 11094 11092 1 
10577 11095 11097 1 
10578 11096 11095 1 
10579 11099 11098 1 
10580 11100 11098 1 
10581 11102 11101 1 
10582 11103 11101 1 
10583 11105 11104 1 
10584 11106 11104 1 
10585 11108 11107 1 
10586 11109 11107 1 
10587 11111 11110 1 
10588 11112 11110 1 
10589 11113 11114 1 
10590 11113 11115 1 
10591 11117 11116 1 
10592 11118 11116 1 
10593 11120 11119 1 
10594 11121 11119 1 
10595 11123 11122 1 
10596 11124 11122 1 
10597 11126 11125 1 
10598 11127 11125 1 
10599 11129 11128 1 
10600 11130 11128 1 
10601 11132 11131 1 
10602 11133 11131 1 
10603 11135 11134 1 
10604 11136 11134 1 
10605 11137 11138 1 
10606 11137 11139 1 
10607 11141 11140 1 
10608 11142 11140 1 
10609 11143 11144 1 
10610 11143 11145 1 
10611 11146 11147 1 
10612 11146 11148 1 
10613 11150 11149 1 
10614 11151 11149 1 
10615 11153 11152 1 
10616 11154 11152 1 
10617 11156 11155 1 
10618 11157 11155 1 
10619 11159 11158 1 
10620 11160 11158 1 
10621 11161 11163 1 
10622 11162 11161 1 
10623 11165 11164 1 
10624 11166 11164 1 
10625 11167 11168 1 
10626 11167 11169 1 
10627 11171 11170 1 
10628 11172 11170 1 
10629 11174 11173 1 
10630 11175 11173 1 
10631 11177 11176 1 
10632 11178 11176 1 
10633 11180 11179 1 
10634 11181 11179 1 
10635 11183 11182 1 
10636 11184 11182 1 
10637 11186 11185 1 
10638 11187 11185 1 
10639 11189 11188 1 
10640 11190 11188 1 
10641 11191 11193 1 
10642 11192 11191 1 
10643 11195 11194 1 
10644 11196 11194 1 
10645 11198 11197 1 
10646 11199 11197 1 
10647 11201 11200 1 
10648 11202 11200 1 
10649 11204 11203 1 
10650 11205 11203 1 
10651 11207 11206 1 
10652 11208 11206 1 
10653 11209 11211 1 
10654 11210 11209 1 
10655 11212 11213 1 
10656 11212 11214 1 
10657 11216 11215 1 
10658 11217 11215 1 
10659 11219 11218 1 
10660 11220 11218 1 
10661 11222 11221 1 
10662 11223 11221 1 
10663 11225 11224 1 
10664 11226 11224 1 
10665 11228 11227 1 
10666 11229 11227 1 
10667 11231 11230 1 
10668 11232 11230 1 
10669 11234 11233 1 
10670 11235 11233 1 
10671 11237 11236 1 
10672 11238 11236 1 
10673 11240 11239 1 
10674 11241 11239 1 
10675 11243 11242 1 
10676 11244 11242 1 
10677 11246 11245 1 
10678 11247 11245 1 
10679 11248 11249 1 
10680 11248 11250 1 
10681 11252 11251 1 
10682 11253 11251 1 
10683 11255 11254 1 
10684 11256 11254 1 
10685 11258 11257 1 
10686 11259 11257 1 
10687 11261 11260 1 
10688 11262 11260 1 
10689 11263 11264 1 
10690 11263 11265 1 
10691 11266 11268 1 
10692 11267 11266 1 
10693 11270 11269 1 
10694 11271 11269 1 
10695 11273 11272 1 
10696 11274 11272 1 
10697 11276 11275 1 
10698 11277 11275 1 
10699 11279 11278 1 
10700 11280 11278 1 
10701 11282 11281 1 
10702 11283 11281 1 
10703 11285 11284 1 
10704 11286 11284 1 
10705 11288 11287 1 
10706 11289 11287 1 
10707 11291 11290 1 
10708 11292 11290 1 
10709 11294 11293 1 
10710 11295 11293 1 
10711 11297 11296 1 
10712 11298 11296 1 
10713 11300 11299 1 
10714 11301 11299 1 
10715 11303 11302 1 
10716 11304 11302 1 
10717 11306 11305 1 
10718 11307 11305 1 
10719 11309 11308 1 
10720 11310 11308 1 
10721 11312 11311 1 
10722 11313 11311 1 
10723 11315 11314 1 
10724 11316 11314 1 
10725 11318 11317 1 
10726 11319 11317 1 
10727 11321 11320 1 
10728 11322 11320 1 
10729 11324 11323 1 
10730 11325 11323 1 
10731 11327 11326 1 
10732 11328 11326 1 
10733 11330 11329 1 
10734 11331 11329 1 
10735 11333 11332 1 
10736 11334 11332 1 
10737 11336 11335 1 
10738 11337 11335 1 
10739 11339 11338 1 
10740 11340 11338 1 
10741 11342 11341 1 
10742 11343 11341 1 
10743 11345 11344 1 
10744 11346 11344 1 
10745 11347 11348 1 
10746 11347 11349 1 
10747 11350 11351 1 
10748 11350 11352 1 
10749 11353 11355 1 
10750 11354 11353 1 
10751 11357 11356 1 
10752 11358 11356 1 
10753 11360 11359 1 
10754 11361 11359 1 
10755 11363 11362 1 
10756 11364 11362 1 
10757 11366 11365 1 
10758 11367 11365 1 
10759 11369 11368 1 
10760 11370 11368 1 
10761 11372 11371 1 
10762 11373 11371 1 
10763 11375 11374 1 
10764 11376 11374 1 
10765 11378 11377 1 
10766 11379 11377 1 
10767 11381 11380 1 
10768 11382 11380 1 
10769 11384 11383 1 
10770 11385 11383 1 
10771 11386 11387 1 
10772 11386 11388 1 
10773 11389 11391 1 
10774 11390 11389 1 
10775 11393 11392 1 
10776 11394 11392 1 
10777 11396 11395 1 
10778 11397 11395 1 
10779 11399 11398 1 
10780 11400 11398 1 
10781 11402 11401 1 
10782 11403 11401 1 
10783 11405 11404 1 
10784 11406 11404 1 
10785 11408 11407 1 
10786 11409 11407 1 
10787 11411 11410 1 
10788 11412 11410 1 
10789 11414 11413 1 
10790 11415 11413 1 
10791 11417 11416 1 
10792 11418 11416 1 
10793 11420 11419 1 
10794 11421 11419 1 
10795 11423 11422 1 
10796 11424 11422 1 
10797 11426 11425 1 
10798 11427 11425 1 
10799 11429 11428 1 
10800 11430 11428 1 
10801 11432 11431 1 
10802 11433 11431 1 
10803 11434 11436 1 
10804 11434 11435 1 
10805 11438 11437 1 
10806 11439 11437 1 
10807 11440 11442 1 
10808 11440 11441 1 
10809 11444 11443 1 
10810 11445 11443 1 
10811 11446 11448 1 
10812 11446 11447 1 
10813 11450 11449 1 
10814 11451 11449 1 
10815 11453 11452 1 
10816 11454 11452 1 
10817 11455 11456 1 
10818 11455 11457 1 
10819 11459 11458 1 
10820 11460 11458 1 
10821 11462 11461 1 
10822 11463 11461 1 
10823 11465 11464 1 
10824 11466 11464 1 
10825 11468 11467 1 
10826 11469 11467 1 
10827 11471 11470 1 
10828 11472 11470 1 
10829 11474 11473 1 
10830 11475 11473 1 
10831 11476 11477 1 
10832 11476 11478 1 
10833 11480 11479 1 
10834 11481 11479 1 
10835 11483 11482 1 
10836 11484 11482 1 
10837 11486 11485 1 
10838 11487 11485 1 
10839 11489 11488 1 
10840 11490 11488 1 
10841 11492 11491 1 
10842 11493 11491 1 
10843 11495 11494 1 
10844 11496 11494 1 
10845 11498 11497 1 
10846 11499 11497 1 
10847 11501 11500 1 
10848 11502 11500 1 
10849 11504 11503 1 
10850 11505 11503 1 
10851 11507 11506 1 
10852 11508 11506 1 
10853 11510 11509 1 
10854 11511 11509 1 
10855 11512 11514 1 
10856 11513 11512 1 
10857 11516 11515 1 
10858 11517 11515 1 
10859 11519 11518 1 
10860 11520 11518 1 
10861 11522 11521 1 
10862 11523 11521 1 
10863 11525 11524 1 
10864 11526 11524 1 
10865 11528 11527 1 
10866 11529 11527 1 
10867 11531 11530 1 
10868 11532 11530 1 
10869 11534 11533 1 
10870 11535 11533 1 
10871 11537 11536 1 
10872 11538 11536 1 
10873 11540 11539 1 
10874 11541 11539 1 
10875 11543 11542 1 
10876 11544 11542 1 
10877 11546 11545 1 
10878 11547 11545 1 
10879 11549 11548 1 
10880 11550 11548 1 
10881 11552 11551 1 
10882 11553 11551 1 
10883 11555 11554 1 
10884 11556 11554 1 
10885 11558 11557 1 
10886 11559 11557 1 
10887 11560 11562 1 
10888 11561 11560 1 
10889 11564 11563 1 
10890 11565 11563 1 
10891 11567 11566 1 
10892 11568 11566 1 
10893 11570 11569 1 
10894 11571 11569 1 
10895 11573 11572 1 
10896 11574 11572 1 
10897 11575 11577 1 
10898 11576 11575 1 
10899 11579 11578 1 
10900 11580 11578 1 
10901 11582 11581 1 
10902 11583 11581 1 
10903 11585 11584 1 
10904 11586 11584 1 
10905 11588 11587 1 
10906 11589 11587 1 
10907 11590 11592 1 
10908 11591 11590 1 
10909 11594 11593 1 
10910 11595 11593 1 
10911 11597 11596 1 
10912 11598 11596 1 
10913 11599 11601 1 
10914 11600 11599 1 
10915 11603 11602 1 
10916 11604 11602 1 
10917 11606 11605 1 
10918 11607 11605 1 
10919 11608 11609 1 
10920 11608 11610 1 
10921 11612 11611 1 
10922 11613 11611 1 
10923 11615 11614 1 
10924 11616 11614 1 
10925 11618 11617 1 
10926 11619 11617 1 
10927 11621 11620 1 
10928 11622 11620 1 
10929 11624 11623 1 
10930 11625 11623 1 
10931 11627 11626 1 
10932 11628 11626 1 
10933 11630 11629 1 
10934 11631 11629 1 
10935 11633 11632 1 
10936 11634 11632 1 
10937 11636 11635 1 
10938 11637 11635 1 
10939 11639 11638 1 
10940 11640 11638 1 
10941 11641 11642 1 
10942 11641 11643 1 
10943 11645 11644 1 
10944 11646 11644 1 
10945 11647 11648 1 
10946 11647 11649 1 
10947 11650 11652 1 
10948 11651 11650 1 
10949 11654 11653 1 
10950 11655 11653 1 
10951 11657 11656 1 
10952 11658 11656 1 
10953 11659 11660 1 
10954 11659 11661 1 
10955 11663 11662 1 
10956 11664 11662 1 
10957 11665 11667 1 
10958 11666 11665 1 
10959 11668 11669 1 
10960 11668 11670 1 
10961 11672 11671 1 
10962 11673 11671 1 
10963 11675 11674 1 
10964 11676 11674 1 
10965 11678 11677 1 
10966 11679 11677 1 
10967 11680 11682 1 
10968 11681 11680 1 
10969 11684 11683 1 
10970 11685 11683 1 
10971 11687 11686 1 
10972 11688 11686 1 
10973 11690 11689 1 
10974 11691 11689 1 
10975 11693 11692 1 
10976 11694 11692 1 
10977 11696 11695 1 
10978 11697 11695 1 
10979 11699 11698 1 
10980 11700 11698 1 
10981 11702 11701 1 
10982 11703 11701 1 
10983 11704 11705 1 
10984 11704 11706 1 
10985 11708 11707 1 
10986 11709 11707 1 
10987 11711 11710 1 
10988 11712 11710 1 
10989 11714 11713 1 
10990 11715 11713 1 
10991 11717 11716 1 
10992 11718 11716 1 
10993 11719 11721 1 
10994 11720 11719 1 
10995 11723 11722 1 
10996 11724 11722 1 
10997 11726 11725 1 
10998 11727 11725 1 
10999 11729 11728 1 
11000 11730 11728 1 
11001 11732 11731 1 
11002 11733 11731 1 
11003 11735 11734 1 
11004 11736 11734 1 
11005 11738 11737 1 
11006 11739 11737 1 
11007 11740 11741 1 
11008 11740 11742 1 
11009 11743 11744 1 
11010 11743 11745 1 
11011 11747 11746 1 
11012 11748 11746 1 
11013 11749 11751 1 
11014 11749 11750 1 
11015 11753 11752 1 
11016 11754 11752 1 
11017 11755 11757 1 
11018 11756 11755 1 
11019 11759 11758 1 
11020 11760 11758 1 
11021 11762 11761 1 
11022 11763 11761 1 
11023 11764 11765 1 
11024 11764 11766 1 
11025 11768 11767 1 
11026 11769 11767 1 
11027 11771 11770 1 
11028 11772 11770 1 
11029 11774 11773 1 
11030 11775 11773 1 
11031 11777 11776 1 
11032 11778 11776 1 
11033 11780 11779 1 
11034 11781 11779 1 
11035 11783 11782 1 
11036 11784 11782 1 
11037 11786 11785 1 
11038 11787 11785 1 
11039 11788 11790 1 
11040 11789 11788 1 
11041 11791 11792 1 
11042 11791 11793 1 
11043 11795 11794 1 
11044 11796 11794 1 
11045 11798 11797 1 
11046 11799 11797 1 
11047 11801 11800 1 
11048 11802 11800 1 
11049 11804 11803 1 
11050 11805 11803 1 
11051 11807 11806 1 
11052 11808 11806 1 
11053 11809 11810 1 
11054 11809 11811 1 
11055 11813 11812 1 
11056 11814 11812 1 
11057 11816 11815 1 
11058 11817 11815 1 
11059 11819 11818 1 
11060 11820 11818 1 
11061 11822 11821 1 
11062 11823 11821 1 
11063 11824 11826 1 
11064 11825 11824 1 
11065 11828 11827 1 
11066 11829 11827 1 
11067 11831 11830 1 
11068 11832 11830 1 
11069 11834 11833 1 
11070 11835 11833 1 
11071 11837 11836 1 
11072 11838 11836 1 
11073 11839 11841 1 
11074 11840 11839 1 
11075 11843 11842 1 
11076 11844 11842 1 
11077 11846 11845 1 
11078 11847 11845 1 
11079 11849 11848 1 
11080 11850 11848 1 
11081 11851 11853 1 
11082 11852 11851 1 
11083 11855 11854 1 
11084 11856 11854 1 
11085 11858 11857 1 
11086 11859 11857 1 
11087 11861 11860 1 
11088 11862 11860 1 
11089 11864 11863 1 
11090 11865 11863 1 
11091 11867 11866 1 
11092 11868 11866 1 
11093 11870 11869 1 
11094 11871 11869 1 
11095 11873 11872 1 
11096 11874 11872 1 
11097 11875 11877 1 
11098 11876 11875 1 
11099 11878 11879 1 
11100 11878 11880 1 
11101 11882 11881 1 
11102 11883 11881 1 
11103 11885 11884 1 
11104 11886 11884 1 
11105 11888 11887 1 
11106 11889 11887 1 
11107 11891 11890 1 
11108 11892 11890 1 
11109 11893 11894 1 
11110 11893 11895 1 
11111 11897 11896 1 
11112 11898 11896 1 
11113 11899 11901 1 
11114 11900 11899 1 
11115 11903 11902 1 
11116 11904 11902 1 
11117 11906 11905 1 
11118 11907 11905 1 
11119 11909 11908 1 
11120 11910 11908 1 
11121 11912 11911 1 
11122 11913 11911 1 
11123 11914 11915 1 
11124 11914 11916 1 
11125 11918 11917 1 
11126 11919 11917 1 
11127 11921 11920 1 
11128 11922 11920 1 
11129 11924 11923 1 
11130 11925 11923 1 
11131 11926 11928 1 
11132 11926 11927 1 
11133 11929 11931 1 
11134 11930 11929 1 
11135 11933 11932 1 
11136 11934 11932 1 
11137 11936 11935 1 
11138 11937 11935 1 
11139 11939 11938 1 
11140 11940 11938 1 
11141 11941 11942 1 
11142 11941 11943 1 
11143 11945 11944 1 
11144 11946 11944 1 
11145 11947 11949 1 
11146 11948 11947 1 
11147 11951 11950 1 
11148 11952 11950 1 
11149 11954 11953 1 
11150 11955 11953 1 
11151 11957 11956 1 
11152 11958 11956 1 
11153 11960 11959 1 
11154 11961 11959 1 
11155 11963 11962 1 
11156 11964 11962 1 
11157 11966 11965 1 
11158 11967 11965 1 
11159 11969 11968 1 
11160 11970 11968 1 
11161 11972 11971 1 
11162 11973 11971 1 
11163 11975 11974 1 
11164 11976 11974 1 
11165 11977 11978 1 
11166 11977 11979 1 
11167 11981 11980 1 
11168 11982 11980 1 
11169 11984 11983 1 
11170 11985 11983 1 
11171 11987 11986 1 
11172 11988 11986 1 
11173 11990 11989 1 
11174 11991 11989 1 
11175 11992 11994 1 
11176 11993 11992 1 
11177 11996 11995 1 
11178 11997 11995 1 
11179 11999 11998 1 
11180 12000 11998 1 
11181 12002 12001 1 
11182 12003 12001 1 
11183 12005 12004 1 
11184 12006 12004 1 
11185 12008 12007 1 
11186 12009 12007 1 
11187 12011 12010 1 
11188 12012 12010 1 
11189 12014 12013 1 
11190 12015 12013 1 
11191 12016 12018 1 
11192 12017 12016 1 
11193 12020 12019 1 
11194 12021 12019 1 
11195 12023 12022 1 
11196 12024 12022 1 
11197 12026 12025 1 
11198 12027 12025 1 
11199 12029 12028 1 
11200 12030 12028 1 
11201 12032 12031 1 
11202 12033 12031 1 
11203 12035 12034 1 
11204 12036 12034 1 
11205 12038 12037 1 
11206 12039 12037 1 
11207 12041 12040 1 
11208 12042 12040 1 
11209 12043 12045 1 
11210 12044 12043 1 
11211 12046 12048 1 
11212 12047 12046 1 
11213 12050 12049 1 
11214 12051 12049 1 
11215 12053 12052 1 
11216 12054 12052 1 
11217 12056 12055 1 
11218 12057 12055 1 
11219 12058 12059 1 
11220 12058 12060 1 
11221 12062 12061 1 
11222 12063 12061 1 
11223 12065 12064 1 
11224 12066 12064 1 
11225 12068 12067 1 
11226 12069 12067 1 
11227 12070 12072 1 
11228 12071 12070 1 
11229 12074 12073 1 
11230 12075 12073 1 
11231 12077 12076 1 
11232 12078 12076 1 
11233 12080 12079 1 
11234 12081 12079 1 
11235 12082 12083 1 
11236 12082 12084 1 
11237 12086 12085 1 
11238 12087 12085 1 
11239 12089 12088 1 
11240 12090 12088 1 
11241 12092 12091 1 
11242 12093 12091 1 
11243 12095 12094 1 
11244 12096 12094 1 
11245 12097 12098 1 
11246 12097 12099 1 
11247 12101 12100 1 
11248 12102 12100 1 
11249 12104 12103 1 
11250 12105 12103 1 
11251 12107 12106 1 
11252 12108 12106 1 
11253 12110 12109 1 
11254 12111 12109 1 
11255 12113 12112 1 
11256 12114 12112 1 
11257 12116 12115 1 
11258 12117 12115 1 
11259 12119 12118 1 
11260 12120 12118 1 
11261 12122 12121 1 
11262 12123 12121 1 
11263 12125 12124 1 
11264 12126 12124 1 
11265 12128 12127 1 
11266 12129 12127 1 
11267 12130 12132 1 
11268 12131 12130 1 
11269 12134 12133 1 
11270 12135 12133 1 
11271 12136 12138 1 
11272 12136 12137 1 
11273 12140 12139 1 
11274 12141 12139 1 
11275 12142 12143 1 
11276 12142 12144 1 
11277 12146 12145 1 
11278 12147 12145 1 
11279 12149 12148 1 
11280 12150 12148 1 
11281 12152 12151 1 
11282 12153 12151 1 
11283 12155 12154 1 
11284 12156 12154 1 
11285 12158 12157 1 
11286 12159 12157 1 
11287 12160 12162 1 
11288 12161 12160 1 
11289 12164 12163 1 
11290 12165 12163 1 
11291 12167 12166 1 
11292 12168 12166 1 
11293 12169 12170 1 
11294 12169 12171 1 
11295 12173 12172 1 
11296 12174 12172 1 
11297 12176 12175 1 
11298 12177 12175 1 
11299 12179 12178 1 
11300 12180 12178 1 
11301 12182 12181 1 
11302 12183 12181 1 
11303 12184 12186 1 
11304 12185 12184 1 
11305 12188 12187 1 
11306 12189 12187 1 
11307 12191 12190 1 
11308 12192 12190 1 
11309 12194 12193 1 
11310 12195 12193 1 
11311 12196 12198 1 
11312 12197 12196 1 
11313 12200 12199 1 
11314 12201 12199 1 
11315 12203 12202 1 
11316 12204 12202 1 
11317 12205 12207 1 
11318 12205 12206 1 
11319 12208 12209 1 
11320 12208 12210 1 
11321 12212 12211 1 
11322 12213 12211 1 
11323 12214 12216 1 
11324 12215 12214 1 
11325 12218 12217 1 
11326 12219 12217 1 
11327 12221 12220 1 
11328 12222 12220 1 
11329 12224 12223 1 
11330 12225 12223 1 
11331 12227 12226 1 
11332 12228 12226 1 
11333 12230 12229 1 
11334 12231 12229 1 
11335 12233 12232 1 
11336 12234 12232 1 
11337 12236 12235 1 
11338 12237 12235 1 
11339 12239 12238 1 
11340 12240 12238 1 
11341 12241 12243 1 
11342 12241 12242 1 
11343 12245 12244 1 
11344 12246 12244 1 
11345 12247 12248 1 
11346 12247 12249 1 
11347 12251 12250 1 
11348 12252 12250 1 
11349 12254 12253 1 
11350 12255 12253 1 
11351 12257 12256 1 
11352 12258 12256 1 
11353 12259 12261 1 
11354 12260 12259 1 
11355 12263 12262 1 
11356 12264 12262 1 
11357 12265 12266 1 
11358 12265 12267 1 
11359 12268 12269 1 
11360 12268 12270 1 
11361 12272 12271 1 
11362 12273 12271 1 
11363 12275 12274 1 
11364 12276 12274 1 
11365 12277 12278 1 
11366 12277 12279 1 
11367 12281 12280 1 
11368 12282 12280 1 
11369 12283 12284 1 
11370 12283 12285 1 
11371 12287 12286 1 
11372 12288 12286 1 
11373 12290 12289 1 
11374 12291 12289 1 
11375 12293 12292 1 
11376 12294 12292 1 
11377 12296 12295 1 
11378 12297 12295 1 
11379 12299 12298 1 
11380 12300 12298 1 
11381 12302 12301 1 
11382 12303 12301 1 
11383 12305 12304 1 
11384 12306 12304 1 
11385 12307 12309 1 
11386 12308 12307 1 
11387 12311 12310 1 
11388 12312 12310 1 
11389 12314 12313 1 
11390 12315 12313 1 
11391 12317 12316 1 
11392 12318 12316 1 
11393 12319 12320 1 
11394 12319 12321 1 
11395 12323 12322 1 
11396 12324 12322 1 
11397 12326 12325 1 
11398 12327 12325 1 
11399 12328 12330 1 
11400 12329 12328 1 
11401 12331 12333 1 
11402 12331 12332 1 
11403 12335 12334 1 
11404 12336 12334 1 
11405 12338 12337 1 
11406 12339 12337 1 
11407 12341 12340 1 
11408 12342 12340 1 
11409 12344 12343 1 
11410 12345 12343 1 
11411 12347 12346 1 
11412 12348 12346 1 
11413 12350 12349 1 
11414 12351 12349 1 
11415 12353 12352 1 
11416 12354 12352 1 
11417 12355 12356 1 
11418 12355 12357 1 
11419 12359 12358 1 
11420 12360 12358 1 
11421 12362 12361 1 
11422 12363 12361 1 
11423 12365 12364 1 
11424 12366 12364 1 
11425 12368 12367 1 
11426 12369 12367 1 
11427 12371 12370 1 
11428 12372 12370 1 
11429 12374 12373 1 
11430 12375 12373 1 
11431 12377 12376 1 
11432 12378 12376 1 
11433 12380 12379 1 
11434 12381 12379 1 
11435 12383 12382 1 
11436 12384 12382 1 
11437 12386 12385 1 
11438 12387 12385 1 
11439 12388 12389 1 
11440 12388 12390 1 
11441 12392 12391 1 
11442 12393 12391 1 
11443 12395 12394 1 
11444 12396 12394 1 
11445 12398 12397 1 
11446 12399 12397 1 
11447 12400 12401 1 
11448 12400 12402 1 
11449 12403 12405 1 
11450 12404 12403 1 
11451 12407 12406 1 
11452 12408 12406 1 
11453 12410 12409 1 
11454 12411 12409 1 
11455 12413 12412 1 
11456 12414 12412 1 
11457 12415 12416 1 
11458 12415 12417 1 
11459 12419 12418 1 
11460 12420 12418 1 
11461 12422 12421 1 
11462 12423 12421 1 
11463 12424 12425 1 
11464 12424 12426 1 
11465 12428 12427 1 
11466 12429 12427 1 
11467 12430 12432 1 
11468 12431 12430 1 
11469 12434 12433 1 
11470 12435 12433 1 
11471 12437 12436 1 
11472 12438 12436 1 
11473 12440 12439 1 
11474 12441 12439 1 
11475 12442 12444 1 
11476 12442 12443 1 
11477 12446 12445 1 
11478 12447 12445 1 
11479 12449 12448 1 
11480 12450 12448 1 
11481 12452 12451 1 
11482 12453 12451 1 
11483 12455 12454 1 
11484 12456 12454 1 
11485 12457 12459 1 
11486 12458 12457 1 
11487 12461 12460 1 
11488 12462 12460 1 
11489 12463 12465 1 
11490 12464 12463 1 
11491 12466 12468 1 
11492 12467 12466 1 
11493 12470 12469 1 
11494 12471 12469 1 
11495 12473 12472 1 
11496 12474 12472 1 
11497 12476 12475 1 
11498 12477 12475 1 
11499 12479 12478 1 
11500 12480 12478 1 
11501 12482 12481 1 
11502 12483 12481 1 
11503 12484 12486 1 
11504 12485 12484 1 
11505 12488 12487 1 
11506 12489 12487 1 
11507 12491 12490 1 
11508 12492 12490 1 
11509 12493 12495 1 
11510 12494 12493 1 
11511 12497 12496 1 
11512 12498 12496 1 
11513 12499 12500 1 
11514 12499 12501 1 
11515 12503 12502 1 
11516 12504 12502 1 
11517 12506 12505 1 
11518 12507 12505 1 
11519 12508 12509 1 
11520 12508 12510 1 
11521 12512 12511 1 
11522 12513 12511 1 
11523 12515 12514 1 
11524 12516 12514 1 
11525 12517 12519 1 
11526 12518 12517 1 
11527 12521 12520 1 
11528 12522 12520 1 
11529 12524 12523 1 
11530 12525 12523 1 
11531 12527 12526 1 
11532 12528 12526 1 
11533 12530 12529 1 
11534 12531 12529 1 
11535 12533 12532 1 
11536 12534 12532 1 
11537 12536 12535 1 
11538 12537 12535 1 
11539 12539 12538 1 
11540 12540 12538 1 
11541 12542 12541 1 
11542 12543 12541 1 
11543 12545 12544 1 
11544 12546 12544 1 
11545 12548 12547 1 
11546 12549 12547 1 
11547 12551 12550 1 
11548 12552 12550 1 
11549 12554 12553 1 
11550 12555 12553 1 
11551 12556 12558 1 
11552 12557 12556 1 
11553 12560 12559 1 
11554 12561 12559 1 
11555 12562 12563 1 
11556 12562 12564 1 
11557 12566 12565 1 
11558 12567 12565 1 
11559 12569 12568 1 
11560 12570 12568 1 
11561 12572 12571 1 
11562 12573 12571 1 
11563 12575 12574 1 
11564 12576 12574 1 
11565 12578 12577 1 
11566 12579 12577 1 
11567 12581 12580 1 
11568 12582 12580 1 
11569 12584 12583 1 
11570 12585 12583 1 
11571 12587 12586 1 
11572 12588 12586 1 
11573 12590 12589 1 
11574 12591 12589 1 
11575 12593 12592 1 
11576 12594 12592 1 
11577 12596 12595 1 
11578 12597 12595 1 
11579 12599 12598 1 
11580 12600 12598 1 
11581 12602 12601 1 
11582 12603 12601 1 
11583 12605 12604 1 
11584 12606 12604 1 
11585 12608 12607 1 
11586 12609 12607 1 
11587 12611 12610 1 
11588 12612 12610 1 
11589 12613 12615 1 
11590 12613 12614 1 
11591 12617 12616 1 
11592 12618 12616 1 
11593 12620 12619 1 
11594 12621 12619 1 
11595 12623 12622 1 
11596 12624 12622 1 
11597 12626 12625 1 
11598 12627 12625 1 
11599 12629 12628 1 
11600 12630 12628 1 
11601 12632 12631 1 
11602 12633 12631 1 
11603 12635 12634 1 
11604 12636 12634 1 
11605 12638 12637 1 
11606 12639 12637 1 
11607 12640 12642 1 
11608 12641 12640 1 
11609 12644 12643 1 
11610 12645 12643 1 
11611 12646 12648 1 
11612 12647 12646 1 
11613 12650 12649 1 
11614 12651 12649 1 
11615 12653 12652 1 
11616 12654 12652 1 
11617 12656 12655 1 
11618 12657 12655 1 
11619 12659 12658 1 
11620 12660 12658 1 
11621 12662 12661 1 
11622 12663 12661 1 
11623 12665 12664 1 
11624 12666 12664 1 
11625 12668 12667 1 
11626 12669 12667 1 
11627 12671 12670 1 
11628 12672 12670 1 
11629 12674 12673 1 
11630 12675 12673 1 
11631 12676 12678 1 
11632 12676 12677 1 
11633 12680 12679 1 
11634 12681 12679 1 
11635 12682 12684 1 
11636 12683 12682 1 
11637 12686 12685 1 
11638 12687 12685 1 
11639 12689 12688 1 
11640 12690 12688 1 
11641 12692 12691 1 
11642 12693 12691 1 
11643 12695 12694 1 
11644 12696 12694 1 
11645 12698 12697 1 
11646 12699 12697 1 
11647 12700 12702 1 
11648 12701 12700 1 
11649 12704 12703 1 
11650 12705 12703 1 
11651 12707 12706 1 
11652 12708 12706 1 
11653 12709 12710 1 
11654 12709 12711 1 
11655 12713 12712 1 
11656 12714 12712 1 
11657 12715 12716 1 
11658 12715 12717 1 
11659 12719 12718 1 
11660 12720 12718 1 
11661 12722 12721 1 
11662 12723 12721 1 
11663 12725 12724 1 
11664 12726 12724 1 
11665 12728 12727 1 
11666 12729 12727 1 
11667 12731 12730 1 
11668 12732 12730 1 
11669 12734 12733 1 
11670 12735 12733 1 
11671 12737 12736 1 
11672 12738 12736 1 
11673 12740 12739 1 
11674 12741 12739 1 
11675 12743 12742 1 
11676 12744 12742 1 
11677 12746 12745 1 
11678 12747 12745 1 
11679 12749 12748 1 
11680 12750 12748 1 
11681 12751 12753 1 
11682 12752 12751 1 
11683 12755 12754 1 
11684 12756 12754 1 
11685 12758 12757 1 
11686 12759 12757 1 
11687 12761 12760 1 
11688 12762 12760 1 
11689 12764 12763 1 
11690 12765 12763 1 
11691 12767 12766 1 
11692 12768 12766 1 
11693 12769 12770 1 
11694 12769 12771 1 
11695 12773 12772 1 
11696 12774 12772 1 
11697 12776 12775 1 
11698 12777 12775 1 
11699 12779 12778 1 
11700 12780 12778 1 
11701 12781 12783 1 
11702 12782 12781 1 
11703 12785 12784 1 
11704 12786 12784 1 
11705 12788 12787 1 
11706 12789 12787 1 
11707 12791 12790 1 
11708 12792 12790 1 
11709 12794 12793 1 
11710 12795 12793 1 
11711 12797 12796 1 
11712 12798 12796 1 
11713 12800 12799 1 
11714 12801 12799 1 
11715 12803 12802 1 
11716 12804 12802 1 
11717 12805 12806 1 
11718 12805 12807 1 
11719 12809 12808 1 
11720 12810 12808 1 
11721 12812 12811 1 
11722 12813 12811 1 
11723 12814 12815 1 
11724 12814 12816 1 
11725 12818 12817 1 
11726 12819 12817 1 
11727 12821 12820 1 
11728 12822 12820 1 
11729 12823 12825 1 
11730 12823 12824 1 
11731 12827 12826 1 
11732 12828 12826 1 
11733 12829 12831 1 
11734 12830 12829 1 
11735 12833 12832 1 
11736 12834 12832 1 
11737 12835 12837 1 
11738 12836 12835 1 
11739 12839 12838 1 
11740 12840 12838 1 
11741 12842 12841 1 
11742 12843 12841 1 
11743 12845 12844 1 
11744 12846 12844 1 
11745 12848 12847 1 
11746 12849 12847 1 
11747 12851 12850 1 
11748 12852 12850 1 
11749 12853 12855 1 
11750 12854 12853 1 
11751 12857 12856 1 
11752 12858 12856 1 
11753 12860 12859 1 
11754 12861 12859 1 
11755 12862 12864 1 
11756 12862 12863 1 
11757 12866 12865 1 
11758 12867 12865 1 
11759 12869 12868 1 
11760 12870 12868 1 
11761 12872 12871 1 
11762 12873 12871 1 
11763 12875 12874 1 
11764 12876 12874 1 
11765 12878 12877 1 
11766 12879 12877 1 
11767 12881 12880 1 
11768 12882 12880 1 
11769 12884 12883 1 
11770 12885 12883 1 
11771 12887 12886 1 
11772 12888 12886 1 
11773 12890 12889 1 
11774 12891 12889 1 
11775 12893 12892 1 
11776 12894 12892 1 
11777 12896 12895 1 
11778 12897 12895 1 
11779 12898 12900 1 
11780 12898 12899 1 
11781 12902 12901 1 
11782 12903 12901 1 
11783 12905 12904 1 
11784 12906 12904 1 
11785 12908 12907 1 
11786 12909 12907 1 
11787 12911 12910 1 
11788 12912 12910 1 
11789 12914 12913 1 
11790 12915 12913 1 
11791 12917 12916 1 
11792 12918 12916 1 
11793 12920 12919 1 
11794 12921 12919 1 
11795 12922 12923 1 
11796 12922 12924 1 
11797 12926 12925 1 
11798 12927 12925 1 
11799 12929 12928 1 
11800 12930 12928 1 
11801 12931 12933 1 
11802 12932 12931 1 
11803 12935 12934 1 
11804 12936 12934 1 
11805 12938 12937 1 
11806 12939 12937 1 
11807 12941 12940 1 
11808 12942 12940 1 
11809 12944 12943 1 
11810 12945 12943 1 
11811 12947 12946 1 
11812 12948 12946 1 
11813 12949 12950 1 
11814 12949 12951 1 
11815 12953 12952 1 
11816 12954 12952 1 
11817 12956 12955 1 
11818 12957 12955 1 
11819 12959 12958 1 
11820 12960 12958 1 
11821 12962 12961 1 
11822 12963 12961 1 
11823 12965 12964 1 
11824 12966 12964 1 
11825 12968 12967 1 
11826 12969 12967 1 
11827 12970 12971 1 
11828 12970 12972 1 
11829 12973 12974 1 
11830 12973 12975 1 
11831 12977 12976 1 
11832 12978 12976 1 
11833 12980 12979 1 
11834 12981 12979 1 
11835 12983 12982 1 
11836 12984 12982 1 
11837 12986 12985 1 
11838 12987 12985 1 
11839 12989 12988 1 
11840 12990 12988 1 
11841 12992 12991 1 
11842 12993 12991 1 
11843 12995 12994 1 
11844 12996 12994 1 
11845 12998 12997 1 
11846 12999 12997 1 
11847 13001 13000 1 
11848 13002 13000 1 
11849 13004 13003 1 
11850 13005 13003 1 
11851 13007 13006 1 
11852 13008 13006 1 
11853 13010 13009 1 
11854 13011 13009 1 
11855 13013 13012 1 
11856 13014 13012 1 
11857 13016 13015 1 
11858 13017 13015 1 
11859 13019 13018 1 
11860 13020 13018 1 
11861 13022 13021 1 
11862 13023 13021 1 
11863 13025 13024 1 
11864 13026 13024 1 
11865 13028 13027 1 
11866 13029 13027 1 
11867 13031 13030 1 
11868 13032 13030 1 
11869 13034 13033 1 
11870 13035 13033 1 
11871 13037 13036 1 
11872 13038 13036 1 
11873 13040 13039 1 
11874 13041 13039 1 
11875 13042 13044 1 
11876 13043 13042 1 
11877 13046 13045 1 
11878 13047 13045 1 
11879 13049 13048 1 
11880 13050 13048 1 
11881 13052 13051 1 
11882 13053 13051 1 
11883 13055 13054 1 
11884 13056 13054 1 
11885 13058 13057 1 
11886 13059 13057 1 
11887 13060 13062 1 
11888 13061 13060 1 
11889 13064 13063 1 
11890 13065 13063 1 
11891 13067 13066 1 
11892 13068 13066 1 
11893 13070 13069 1 
11894 13071 13069 1 
11895 13073 13072 1 
11896 13074 13072 1 
11897 13076 13075 1 
11898 13077 13075 1 
11899 13079 13078 1 
11900 13080 13078 1 
11901 13082 13081 1 
11902 13083 13081 1 
11903 13085 13084 1 
11904 13086 13084 1 
11905 13088 13087 1 
11906 13089 13087 1 
11907 13091 13090 1 
11908 13092 13090 1 
11909 13094 13093 1 
11910 13095 13093 1 
11911 13097 13096 1 
11912 13098 13096 1 
11913 13100 13099 1 
11914 13101 13099 1 
11915 13102 13103 1 
11916 13102 13104 1 
11917 13106 13105 1 
11918 13107 13105 1 
11919 13109 13108 1 
11920 13110 13108 1 
11921 13112 13111 1 
11922 13113 13111 1 
11923 13115 13114 1 
11924 13116 13114 1 
11925 13118 13117 1 
11926 13119 13117 1 
11927 13121 13120 1 
11928 13122 13120 1 
11929 13124 13123 1 
11930 13125 13123 1 
11931 13126 13127 1 
11932 13126 13128 1 
11933 13129 13131 1 
11934 13130 13129 1 
11935 13133 13132 1 
11936 13134 13132 1 
11937 13136 13135 1 
11938 13137 13135 1 
11939 13139 13138 1 
11940 13140 13138 1 
11941 13142 13141 1 
11942 13143 13141 1 
11943 13144 13146 1 
11944 13145 13144 1 
11945 13148 13147 1 
11946 13149 13147 1 
11947 13150 13151 1 
11948 13150 13152 1 
11949 13154 13153 1 
11950 13155 13153 1 
11951 13157 13156 1 
11952 13158 13156 1 
11953 13160 13159 1 
11954 13161 13159 1 
11955 13162 13163 1 
11956 13162 13164 1 
11957 13165 13167 1 
11958 13166 13165 1 
11959 13169 13168 1 
11960 13170 13168 1 
11961 13171 13173 1 
11962 13172 13171 1 
11963 13174 13176 1 
11964 13175 13174 1 
11965 13178 13177 1 
11966 13179 13177 1 
11967 13181 13180 1 
11968 13182 13180 1 
11969 13184 13183 1 
11970 13185 13183 1 
11971 13187 13186 1 
11972 13188 13186 1 
11973 13190 13189 1 
11974 13191 13189 1 
11975 13193 13192 1 
11976 13194 13192 1 
11977 13196 13195 1 
11978 13197 13195 1 
11979 13199 13198 1 
11980 13200 13198 1 
11981 13202 13201 1 
11982 13203 13201 1 
11983 13205 13204 1 
11984 13206 13204 1 
11985 13208 13207 1 
11986 13209 13207 1 
11987 13211 13210 1 
11988 13212 13210 1 
11989 13213 13215 1 
11990 13214 13213 1 
11991 13217 13216 1 
11992 13218 13216 1 
11993 13220 13219 1 
11994 13221 13219 1 
11995 13223 13222 1 
11996 13224 13222 1 
11997 13226 13225 1 
11998 13227 13225 1 
11999 13229 13228 1 
12000 13230 13228 1 
12001 13231 13233 1 
12002 13231 13232 1 
12003 13234 13235 1 
12004 13234 13236 1 
12005 13238 13237 1 
12006 13239 13237 1 
12007 13241 13240 1 
12008 13242 13240 1 
12009 13244 13243 1 
12010 13245 13243 1 
12011 13246 13247 1 
12012 13246 13248 1 
12013 13250 13249 1 
12014 13251 13249 1 
12015 13252 13254 1 
12016 13253 13252 1 
12017 13256 13255 1 
12018 13257 13255 1 
12019 13259 13258 1 
12020 13260 13258 1 
12021 13262 13261 1 
12022 13263 13261 1 
12023 13264 13266 1 
12024 13265 13264 1 
12025 13268 13267 1 
12026 13269 13267 1 
12027 13270 13271 1 
12028 13270 13272 1 
12029 13273 13275 1 
12030 13273 13274 1 
12031 13277 13276 1 
12032 13278 13276 1 
12033 13280 13279 1 
12034 13281 13279 1 
12035 13283 13282 1 
12036 13284 13282 1 
12037 13286 13285 1 
12038 13287 13285 1 
12039 13289 13288 1 
12040 13290 13288 1 
12041 13292 13291 1 
12042 13293 13291 1 
12043 13294 13295 1 
12044 13294 13296 1 
12045 13298 13297 1 
12046 13299 13297 1 
12047 13301 13300 1 
12048 13302 13300 1 
12049 13304 13303 1 
12050 13305 13303 1 
12051 13307 13306 1 
12052 13308 13306 1 
12053 13310 13309 1 
12054 13311 13309 1 
12055 13313 13312 1 
12056 13314 13312 1 
12057 13316 13315 1 
12058 13317 13315 1 
12059 13318 13319 1 
12060 13318 13320 1 
12061 13322 13321 1 
12062 13323 13321 1 
12063 13325 13324 1 
12064 13326 13324 1 
12065 13328 13327 1 
12066 13329 13327 1 
12067 13330 13332 1 
12068 13331 13330 1 
12069 13334 13333 1 
12070 13335 13333 1 
12071 13336 13337 1 
12072 13336 13338 1 
12073 13340 13339 1 
12074 13341 13339 1 
12075 13343 13342 1 
12076 13344 13342 1 
12077 13346 13345 1 
12078 13347 13345 1 
12079 13349 13348 1 
12080 13350 13348 1 
12081 13352 13351 1 
12082 13353 13351 1 
12083 13355 13354 1 
12084 13356 13354 1 
12085 13357 13358 1 
12086 13357 13359 1 
12087 13361 13360 1 
12088 13362 13360 1 
12089 13363 13365 1 
12090 13364 13363 1 
12091 13367 13366 1 
12092 13368 13366 1 
12093 13370 13369 1 
12094 13371 13369 1 
12095 13373 13372 1 
12096 13374 13372 1 
12097 13375 13377 1 
12098 13375 13376 1 
12099 13379 13378 1 
12100 13380 13378 1 
12101 13381 13382 1 
12102 13381 13383 1 
12103 13385 13384 1 
12104 13386 13384 1 
12105 13388 13387 1 
12106 13389 13387 1 
12107 13390 13392 1 
12108 13391 13390 1 
12109 13393 13395 1 
12110 13394 13393 1 
12111 13396 13398 1 
12112 13397 13396 1 
12113 13400 13399 1 
12114 13401 13399 1 
12115 13403 13402 1 
12116 13404 13402 1 
12117 13405 13407 1 
12118 13406 13405 1 
12119 13408 13410 1 
12120 13409 13408 1 
12121 13412 13411 1 
12122 13413 13411 1 
12123 13415 13414 1 
12124 13416 13414 1 
12125 13417 13419 1 
12126 13418 13417 1 
12127 13421 13420 1 
12128 13422 13420 1 
12129 13424 13423 1 
12130 13425 13423 1 
12131 13426 13428 1 
12132 13427 13426 1 
12133 13430 13429 1 
12134 13431 13429 1 
12135 13433 13432 1 
12136 13434 13432 1 
12137 13436 13435 1 
12138 13437 13435 1 
12139 13439 13438 1 
12140 13440 13438 1 
12141 13442 13441 1 
12142 13443 13441 1 
12143 13444 13445 1 
12144 13444 13446 1 
12145 13447 13449 1 
12146 13448 13447 1 
12147 13451 13450 1 
12148 13452 13450 1 
12149 13453 13455 1 
12150 13453 13454 1 
12151 13456 13458 1 
12152 13456 13457 1 
12153 13460 13459 1 
12154 13461 13459 1 
12155 13463 13462 1 
12156 13464 13462 1 
12157 13466 13465 1 
12158 13467 13465 1 
12159 13469 13468 1 
12160 13470 13468 1 
12161 13472 13471 1 
12162 13473 13471 1 
12163 13475 13474 1 
12164 13476 13474 1 
12165 13477 13478 1 
12166 13477 13479 1 
12167 13481 13480 1 
12168 13482 13480 1 
12169 13484 13483 1 
12170 13485 13483 1 
12171 13487 13486 1 
12172 13488 13486 1 
12173 13489 13490 1 
12174 13489 13491 1 
12175 13493 13492 1 
12176 13494 13492 1 
12177 13496 13495 1 
12178 13497 13495 1 
12179 13498 13499 1 
12180 13498 13500 1 
12181 13501 13502 1 
12182 13501 13503 1 
12183 13504 13505 1 
12184 13504 13506 1 
12185 13508 13507 1 
12186 13509 13507 1 
12187 13510 13512 1 
12188 13511 13510 1 
12189 13514 13513 1 
12190 13515 13513 1 
12191 13517 13516 1 
12192 13518 13516 1 
12193 13519 13521 1 
12194 13520 13519 1 
12195 13523 13522 1 
12196 13524 13522 1 
12197 13525 13527 1 
12198 13526 13525 1 
12199 13528 13529 1 
12200 13528 13530 1 
12201 13532 13531 1 
12202 13533 13531 1 
12203 13535 13534 1 
12204 13536 13534 1 
12205 13538 13537 1 
12206 13539 13537 1 
12207 13541 13540 1 
12208 13542 13540 1 
12209 13543 13545 1 
12210 13544 13543 1 
12211 13547 13546 1 
12212 13548 13546 1 
12213 13550 13549 1 
12214 13551 13549 1 
12215 13553 13552 1 
12216 13554 13552 1 
12217 13556 13555 1 
12218 13557 13555 1 
12219 13558 13560 1 
12220 13559 13558 1 
12221 13561 13563 1 
12222 13561 13562 1 
12223 13565 13564 1 
12224 13566 13564 1 
12225 13568 13567 1 
12226 13569 13567 1 
12227 13571 13570 1 
12228 13572 13570 1 
12229 13574 13573 1 
12230 13575 13573 1 
12231 13577 13576 1 
12232 13578 13576 1 
12233 13579 13581 1 
12234 13580 13579 1 
12235 13583 13582 1 
12236 13584 13582 1 
12237 13586 13585 1 
12238 13587 13585 1 
12239 13589 13588 1 
12240 13590 13588 1 
12241 13591 13593 1 
12242 13592 13591 1 
12243 13595 13594 1 
12244 13596 13594 1 
12245 13598 13597 1 
12246 13599 13597 1 
12247 13601 13600 1 
12248 13602 13600 1 
12249 13604 13603 1 
12250 13605 13603 1 
12251 13607 13606 1 
12252 13608 13606 1 
12253 13609 13610 1 
12254 13609 13611 1 
12255 13612 13614 1 
12256 13613 13612 1 
12257 13616 13615 1 
12258 13617 13615 1 
12259 13619 13618 1 
12260 13620 13618 1 
12261 13622 13621 1 
12262 13623 13621 1 
12263 13625 13624 1 
12264 13626 13624 1 
12265 13628 13627 1 
12266 13629 13627 1 
12267 13631 13630 1 
12268 13632 13630 1 
12269 13634 13633 1 
12270 13635 13633 1 
12271 13637 13636 1 
12272 13638 13636 1 
12273 13640 13639 1 
12274 13641 13639 1 
12275 13643 13642 1 
12276 13644 13642 1 
12277 13645 13646 1 
12278 13645 13647 1 
12279 13649 13648 1 
12280 13650 13648 1 
12281 13652 13651 1 
12282 13653 13651 1 
12283 13655 13654 1 
12284 13656 13654 1 
12285 13658 13657 1 
12286 13659 13657 1 
12287 13661 13660 1 
12288 13662 13660 1 
12289 13663 13665 1 
12290 13664 13663 1 
12291 13667 13666 1 
12292 13668 13666 1 
12293 13670 13669 1 
12294 13671 13669 1 
12295 13672 13673 1 
12296 13672 13674 1 
12297 13676 13675 1 
12298 13677 13675 1 
12299 13678 13680 1 
12300 13679 13678 1 
12301 13682 13681 1 
12302 13683 13681 1 
12303 13685 13684 1 
12304 13686 13684 1 
12305 13688 13687 1 
12306 13689 13687 1 
12307 13691 13690 1 
12308 13692 13690 1 
12309 13694 13693 1 
12310 13695 13693 1 
12311 13697 13696 1 
12312 13698 13696 1 
12313 13700 13699 1 
12314 13701 13699 1 
12315 13703 13702 1 
12316 13704 13702 1 
12317 13706 13705 1 
12318 13707 13705 1 
12319 13709 13708 1 
12320 13710 13708 1 
12321 13712 13711 1 
12322 13713 13711 1 
12323 13715 13714 1 
12324 13716 13714 1 
12325 13717 13719 1 
12326 13718 13717 1 
12327 13721 13720 1 
12328 13722 13720 1 
12329 13724 13723 1 
12330 13725 13723 1 
12331 13727 13726 1 
12332 13728 13726 1 
12333 13730 13729 1 
12334 13731 13729 1 
12335 13733 13732 1 
12336 13734 13732 1 
12337 13736 13735 1 
12338 13737 13735 1 
12339 13739 13738 1 
12340 13740 13738 1 
12341 13741 13743 1 
12342 13742 13741 1 
12343 13745 13744 1 
12344 13746 13744 1 
12345 13748 13747 1 
12346 13749 13747 1 
12347 13751 13750 1 
12348 13752 13750 1 
12349 13754 13753 1 
12350 13755 13753 1 
12351 13757 13756 1 
12352 13758 13756 1 
12353 13759 13761 1 
12354 13759 13760 1 
12355 13763 13762 1 
12356 13764 13762 1 
12357 13766 13765 1 
12358 13767 13765 1 
12359 13768 13770 1 
12360 13769 13768 1 
12361 13771 13773 1 
12362 13772 13771 1 
12363 13775 13774 1 
12364 13776 13774 1 
12365 13778 13777 1 
12366 13779 13777 1 
12367 13781 13780 1 
12368 13782 13780 1 
12369 13784 13783 1 
12370 13785 13783 1 
12371 13787 13786 1 
12372 13788 13786 1 
12373 13790 13789 1 
12374 13791 13789 1 
12375 13793 13792 1 
12376 13794 13792 1 
12377 13796 13795 1 
12378 13797 13795 1 
12379 13799 13798 1 
12380 13800 13798 1 
12381 13802 13801 1 
12382 13803 13801 1 
12383 13805 13804 1 
12384 13806 13804 1 
12385 13808 13807 1 
12386 13809 13807 1 
12387 13811 13810 1 
12388 13812 13810 1 
12389 13814 13813 1 
12390 13815 13813 1 
12391 13817 13816 1 
12392 13818 13816 1 
12393 13820 13819 1 
12394 13821 13819 1 
12395 13823 13822 1 
12396 13824 13822 1 
12397 13826 13825 1 
12398 13827 13825 1 
12399 13829 13828 1 
12400 13830 13828 1 
12401 13831 13833 1 
12402 13831 13832 1 
12403 13835 13834 1 
12404 13836 13834 1 
12405 13838 13837 1 
12406 13839 13837 1 
12407 13841 13840 1 
12408 13842 13840 1 
12409 13844 13843 1 
12410 13845 13843 1 
12411 13847 13846 1 
12412 13848 13846 1 
12413 13850 13849 1 
12414 13851 13849 1 
12415 13853 13852 1 
12416 13854 13852 1 
12417 13856 13855 1 
12418 13857 13855 1 
12419 13858 13860 1 
12420 13859 13858 1 
12421 13862 13861 1 
12422 13863 13861 1 
12423 13865 13864 1 
12424 13866 13864 1 
12425 13868 13867 1 
12426 13869 13867 1 
12427 13871 13870 1 
12428 13872 13870 1 
12429 13874 13873 1 
12430 13875 13873 1 
12431 13876 13878 1 
12432 13877 13876 1 
12433 13880 13879 1 
12434 13881 13879 1 
12435 13883 13882 1 
12436 13884 13882 1 
12437 13886 13885 1 
12438 13887 13885 1 
12439 13889 13888 1 
12440 13890 13888 1 
12441 13892 13891 1 
12442 13893 13891 1 
12443 13895 13894 1 
12444 13896 13894 1 
12445 13898 13897 1 
12446 13899 13897 1 
12447 13901 13900 1 
12448 13902 13900 1 
12449 13904 13903 1 
12450 13905 13903 1 
12451 13907 13906 1 
12452 13908 13906 1 
12453 13910 13909 1 
12454 13911 13909 1 
12455 13912 13913 1 
12456 13912 13914 1 
12457 13915 13917 1 
12458 13916 13915 1 
12459 13918 13920 1 
12460 13919 13918 1 
12461 13921 13922 1 
12462 13921 13923 1 
12463 13925 13924 1 
12464 13926 13924 1 
12465 13928 13927 1 
12466 13929 13927 1 
12467 13930 13932 1 
12468 13931 13930 1 
12469 13933 13935 1 
12470 13934 13933 1 
12471 13937 13936 1 
12472 13938 13936 1 
12473 13940 13939 1 
12474 13941 13939 1 
12475 13943 13942 1 
12476 13944 13942 1 
12477 13946 13945 1 
12478 13947 13945 1 
12479 13949 13948 1 
12480 13950 13948 1 
12481 13952 13951 1 
12482 13953 13951 1 
12483 13954 13956 1 
12484 13954 13955 1 
12485 13958 13957 1 
12486 13959 13957 1 
12487 13961 13960 1 
12488 13962 13960 1 
12489 13963 13964 1 
12490 13963 13965 1 
12491 13967 13966 1 
12492 13968 13966 1 
12493 13969 13971 1 
12494 13970 13969 1 
12495 13972 13974 1 
12496 13973 13972 1 
12497 13976 13975 1 
12498 13977 13975 1 
12499 13978 13979 1 
12500 13978 13980 1 
12501 13982 13981 1 
12502 13983 13981 1 
12503 13984 13986 1 
12504 13985 13984 1 
12505 13988 13987 1 
12506 13989 13987 1 
12507 13990 13992 1 
12508 13991 13990 1 
12509 13994 13993 1 
12510 13995 13993 1 
12511 13996 13998 1 
12512 13997 13996 1 
12513 14000 13999 1 
12514 14001 13999 1 
12515 14003 14002 1 
12516 14004 14002 1 
12517 14006 14005 1 
12518 14007 14005 1 
12519 14009 14008 1 
12520 14010 14008 1 
12521 14012 14011 1 
12522 14013 14011 1 
12523 14015 14014 1 
12524 14016 14014 1 
12525 14018 14017 1 
12526 14019 14017 1 
12527 14021 14020 1 
12528 14022 14020 1 
12529 14024 14023 1 
12530 14025 14023 1 
12531 14026 14027 1 
12532 14026 14028 1 
12533 14030 14029 1 
12534 14031 14029 1 
12535 14033 14032 1 
12536 14034 14032 1 
12537 14036 14035 1 
12538 14037 14035 1 
12539 14039 14038 1 
12540 14040 14038 1 
12541 14042 14041 1 
12542 14043 14041 1 
12543 14044 14046 1 
12544 14045 14044 1 
12545 14048 14047 1 
12546 14049 14047 1 
12547 14051 14050 1 
12548 14052 14050 1 
12549 14054 14053 1 
12550 14055 14053 1 
12551 14057 14056 1 
12552 14058 14056 1 
12553 14059 14061 1 
12554 14060 14059 1 
12555 14062 14063 1 
12556 14062 14064 1 
12557 14066 14065 1 
12558 14067 14065 1 
12559 14068 14070 1 
12560 14069 14068 1 
12561 14072 14071 1 
12562 14073 14071 1 
12563 14075 14074 1 
12564 14076 14074 1 
12565 14078 14077 1 
12566 14079 14077 1 
12567 14081 14080 1 
12568 14082 14080 1 
12569 14083 14085 1 
12570 14084 14083 1 
12571 14087 14086 1 
12572 14088 14086 1 
12573 14089 14091 1 
12574 14089 14090 1 
12575 14093 14092 1 
12576 14094 14092 1 
12577 14096 14095 1 
12578 14097 14095 1 
12579 14099 14098 1 
12580 14100 14098 1 
12581 14102 14101 1 
12582 14103 14101 1 
12583 14105 14104 1 
12584 14106 14104 1 
12585 14108 14107 1 
12586 14109 14107 1 
12587 14111 14110 1 
12588 14112 14110 1 
12589 14114 14113 1 
12590 14115 14113 1 
12591 14117 14116 1 
12592 14118 14116 1 
12593 14120 14119 1 
12594 14121 14119 1 
12595 14123 14122 1 
12596 14124 14122 1 
12597 14126 14125 1 
12598 14127 14125 1 
12599 14129 14128 1 
12600 14130 14128 1 
12601 14132 14131 1 
12602 14133 14131 1 
12603 14135 14134 1 
12604 14136 14134 1 
12605 14138 14137 1 
12606 14139 14137 1 
12607 14141 14140 1 
12608 14142 14140 1 
12609 14143 14144 1 
12610 14143 14145 1 
12611 14147 14146 1 
12612 14148 14146 1 
12613 14150 14149 1 
12614 14151 14149 1 
12615 14153 14152 1 
12616 14154 14152 1 
12617 14156 14155 1 
12618 14157 14155 1 
12619 14159 14158 1 
12620 14160 14158 1 
12621 14161 14163 1 
12622 14161 14162 1 
12623 14165 14164 1 
12624 14166 14164 1 
12625 14168 14167 1 
12626 14169 14167 1 
12627 14171 14170 1 
12628 14172 14170 1 
12629 14174 14173 1 
12630 14175 14173 1 
12631 14177 14176 1 
12632 14178 14176 1 
12633 14180 14179 1 
12634 14181 14179 1 
12635 14183 14182 1 
12636 14184 14182 1 
12637 14186 14185 1 
12638 14187 14185 1 
12639 14189 14188 1 
12640 14190 14188 1 
12641 14192 14191 1 
12642 14193 14191 1 
12643 14195 14194 1 
12644 14196 14194 1 
12645 14197 14199 1 
12646 14198 14197 1 
12647 14200 14202 1 
12648 14201 14200 1 
12649 14204 14203 1 
12650 14205 14203 1 
12651 14207 14206 1 
12652 14208 14206 1 
12653 14209 14210 1 
12654 14209 14211 1 
12655 14213 14212 1 
12656 14214 14212 1 
12657 14216 14215 1 
12658 14217 14215 1 
12659 14219 14218 1 
12660 14220 14218 1 
12661 14222 14221 1 
12662 14223 14221 1 
12663 14225 14224 1 
12664 14226 14224 1 
12665 14228 14227 1 
12666 14229 14227 1 
12667 14231 14230 1 
12668 14232 14230 1 
12669 14234 14233 1 
12670 14235 14233 1 
12671 14237 14236 1 
12672 14238 14236 1 
12673 14239 14240 1 
12674 14239 14241 1 
12675 14243 14242 1 
12676 14244 14242 1 
12677 14246 14245 1 
12678 14247 14245 1 
12679 14248 14250 1 
12680 14249 14248 1 
12681 14251 14252 1 
12682 14251 14253 1 
12683 14255 14254 1 
12684 14256 14254 1 
12685 14258 14257 1 
12686 14259 14257 1 
12687 14261 14260 1 
12688 14262 14260 1 
12689 14263 14264 1 
12690 14263 14265 1 
12691 14267 14266 1 
12692 14268 14266 1 
12693 14270 14269 1 
12694 14271 14269 1 
12695 14273 14272 1 
12696 14274 14272 1 
12697 14276 14275 1 
12698 14277 14275 1 
12699 14278 14280 1 
12700 14279 14278 1 
12701 14281 14283 1 
12702 14281 14282 1 
12703 14285 14284 1 
12704 14286 14284 1 
12705 14288 14287 1 
12706 14289 14287 1 
12707 14291 14290 1 
12708 14292 14290 1 
12709 14294 14293 1 
12710 14295 14293 1 
12711 14297 14296 1 
12712 14298 14296 1 
12713 14300 14299 1 
12714 14301 14299 1 
12715 14302 14304 1 
12716 14303 14302 1 
12717 14306 14305 1 
12718 14307 14305 1 
12719 14309 14308 1 
12720 14310 14308 1 
12721 14312 14311 1 
12722 14313 14311 1 
12723 14315 14314 1 
12724 14316 14314 1 
12725 14318 14317 1 
12726 14319 14317 1 
12727 14321 14320 1 
12728 14322 14320 1 
12729 14324 14323 1 
12730 14325 14323 1 
12731 14327 14326 1 
12732 14328 14326 1 
12733 14330 14329 1 
12734 14331 14329 1 
12735 14333 14332 1 
12736 14334 14332 1 
12737 14336 14335 1 
12738 14337 14335 1 
12739 14339 14338 1 
12740 14340 14338 1 
12741 14342 14341 1 
12742 14343 14341 1 
12743 14345 14344 1 
12744 14346 14344 1 
12745 14348 14347 1 
12746 14349 14347 1 
12747 14351 14350 1 
12748 14352 14350 1 
12749 14353 14355 1 
12750 14354 14353 1 
12751 14357 14356 1 
12752 14358 14356 1 
12753 14360 14359 1 
12754 14361 14359 1 
12755 14362 14363 1 
12756 14362 14364 1 
12757 14365 14366 1 
12758 14365 14367 1 
12759 14368 14370 1 
12760 14369 14368 1 
12761 14371 14373 1 
12762 14372 14371 1 
12763 14375 14374 1 
12764 14376 14374 1 
12765 14378 14377 1 
12766 14379 14377 1 
12767 14380 14381 1 
12768 14380 14382 1 
12769 14384 14383 1 
12770 14385 14383 1 
12771 14387 14386 1 
12772 14388 14386 1 
12773 14390 14389 1 
12774 14391 14389 1 
12775 14392 14393 1 
12776 14392 14394 1 
12777 14396 14395 1 
12778 14397 14395 1 
12779 14399 14398 1 
12780 14400 14398 1 
12781 14402 14401 1 
12782 14403 14401 1 
12783 14405 14404 1 
12784 14406 14404 1 
12785 14408 14407 1 
12786 14409 14407 1 
12787 14411 14410 1 
12788 14412 14410 1 
12789 14413 14415 1 
12790 14414 14413 1 
12791 14417 14416 1 
12792 14418 14416 1 
12793 14420 14419 1 
12794 14421 14419 1 
12795 14422 14424 1 
12796 14422 14423 1 
12797 14426 14425 1 
12798 14427 14425 1 
12799 14429 14428 1 
12800 14430 14428 1 
12801 14432 14431 1 
12802 14433 14431 1 
12803 14435 14434 1 
12804 14436 14434 1 
12805 14438 14437 1 
12806 14439 14437 1 
12807 14440 14442 1 
12808 14440 14441 1 
12809 14444 14443 1 
12810 14445 14443 1 
12811 14447 14446 1 
12812 14448 14446 1 
12813 14450 14449 1 
12814 14451 14449 1 
12815 14453 14452 1 
12816 14454 14452 1 
12817 14455 14457 1 
12818 14456 14455 1 
12819 14459 14458 1 
12820 14460 14458 1 
12821 14462 14461 1 
12822 14463 14461 1 
12823 14464 14465 1 
12824 14464 14466 1 
12825 14468 14467 1 
12826 14469 14467 1 
12827 14471 14470 1 
12828 14472 14470 1 
12829 14474 14473 1 
12830 14475 14473 1 
12831 14476 14478 1 
12832 14477 14476 1 
12833 14480 14479 1 
12834 14481 14479 1 
12835 14483 14482 1 
12836 14484 14482 1 
12837 14486 14485 1 
12838 14487 14485 1 
12839 14489 14488 1 
12840 14490 14488 1 
12841 14492 14491 1 
12842 14493 14491 1 
12843 14495 14494 1 
12844 14496 14494 1 
12845 14498 14497 1 
12846 14499 14497 1 
12847 14501 14500 1 
12848 14502 14500 1 
12849 14504 14503 1 
12850 14505 14503 1 
12851 14507 14506 1 
12852 14508 14506 1 
12853 14510 14509 1 
12854 14511 14509 1 
12855 14513 14512 1 
12856 14514 14512 1 
12857 14516 14515 1 
12858 14517 14515 1 
12859 14519 14518 1 
12860 14520 14518 1 
12861 14522 14521 1 
12862 14523 14521 1 
12863 14525 14524 1 
12864 14526 14524 1 
12865 14528 14527 1 
12866 14529 14527 1 
12867 14531 14530 1 
12868 14532 14530 1 
12869 14534 14533 1 
12870 14535 14533 1 
12871 14537 14536 1 
12872 14538 14536 1 
12873 14540 14539 1 
12874 14541 14539 1 
12875 14542 14544 1 
12876 14542 14543 1 
12877 14546 14545 1 
12878 14547 14545 1 
12879 14549 14548 1 
12880 14550 14548 1 
12881 14551 14552 1 
12882 14551 14553 1 
12883 14554 14556 1 
12884 14555 14554 1 
12885 14558 14557 1 
12886 14559 14557 1 
12887 14561 14560 1 
12888 14562 14560 1 
12889 14564 14563 1 
12890 14565 14563 1 
12891 14566 14568 1 
12892 14566 14567 1 
12893 14570 14569 1 
12894 14571 14569 1 
12895 14573 14572 1 
12896 14574 14572 1 
12897 14576 14575 1 
12898 14577 14575 1 
12899 14578 14580 1 
12900 14579 14578 1 
12901 14582 14581 1 
12902 14583 14581 1 
12903 14585 14584 1 
12904 14586 14584 1 
12905 14588 14587 1 
12906 14589 14587 1 
12907 14591 14590 1 
12908 14592 14590 1 
12909 14594 14593 1 
12910 14595 14593 1 
12911 14597 14596 1 
12912 14598 14596 1 
12913 14600 14599 1 
12914 14601 14599 1 
12915 14603 14602 1 
12916 14604 14602 1 
12917 14606 14605 1 
12918 14607 14605 1 
12919 14609 14608 1 
12920 14610 14608 1 
12921 14611 14612 1 
12922 14611 14613 1 
12923 14614 14615 1 
12924 14614 14616 1 
12925 14618 14617 1 
12926 14619 14617 1 
12927 14620 14622 1 
12928 14620 14621 1 
12929 14624 14623 1 
12930 14625 14623 1 
12931 14626 14628 1 
12932 14627 14626 1 
12933 14630 14629 1 
12934 14631 14629 1 
12935 14633 14632 1 
12936 14634 14632 1 
12937 14636 14635 1 
12938 14637 14635 1 
12939 14639 14638 1 
12940 14640 14638 1 
12941 14641 14643 1 
12942 14642 14641 1 
12943 14645 14644 1 
12944 14646 14644 1 
12945 14648 14647 1 
12946 14649 14647 1 
12947 14651 14650 1 
12948 14652 14650 1 
12949 14654 14653 1 
12950 14655 14653 1 
12951 14656 14658 1 
12952 14656 14657 1 
12953 14660 14659 1 
12954 14661 14659 1 
12955 14663 14662 1 
12956 14664 14662 1 
12957 14666 14665 1 
12958 14667 14665 1 
12959 14669 14668 1 
12960 14670 14668 1 
12961 14672 14671 1 
12962 14673 14671 1 
12963 14675 14674 1 
12964 14676 14674 1 
12965 14678 14677 1 
12966 14679 14677 1 
12967 14681 14680 1 
12968 14682 14680 1 
12969 14684 14683 1 
12970 14685 14683 1 
12971 14687 14686 1 
12972 14688 14686 1 
12973 14690 14689 1 
12974 14691 14689 1 
12975 14693 14692 1 
12976 14694 14692 1 
12977 14696 14695 1 
12978 14697 14695 1 
12979 14699 14698 1 
12980 14700 14698 1 
12981 14702 14701 1 
12982 14703 14701 1 
12983 14705 14704 1 
12984 14706 14704 1 
12985 14708 14707 1 
12986 14709 14707 1 
12987 14710 14712 1 
12988 14711 14710 1 
12989 14714 14713 1 
12990 14715 14713 1 
12991 14717 14716 1 
12992 14718 14716 1 
12993 14720 14719 1 
12994 14721 14719 1 
12995 14723 14722 1 
12996 14724 14722 1 
12997 14726 14725 1 
12998 14727 14725 1 
12999 14729 14728 1 
13000 14730 14728 1 
13001 14732 14731 1 
13002 14733 14731 1 
13003 14734 14736 1 
13004 14735 14734 1 
13005 14738 14737 1 
13006 14739 14737 1 
13007 14741 14740 1 
13008 14742 14740 1 
13009 14744 14743 1 
13010 14745 14743 1 
13011 14747 14746 1 
13012 14748 14746 1 
13013 14750 14749 1 
13014 14751 14749 1 
13015 14753 14752 1 
13016 14754 14752 1 
13017 14756 14755 1 
13018 14757 14755 1 
13019 14759 14758 1 
13020 14760 14758 1 
13021 14762 14761 1 
13022 14763 14761 1 
13023 14765 14764 1 
13024 14766 14764 1 
13025 14768 14767 1 
13026 14769 14767 1 
13027 14771 14770 1 
13028 14772 14770 1 
13029 14774 14773 1 
13030 14775 14773 1 
13031 14777 14776 1 
13032 14778 14776 1 
13033 14780 14779 1 
13034 14781 14779 1 
13035 14783 14782 1 
13036 14784 14782 1 
13037 14785 14787 1 
13038 14786 14785 1 
13039 14789 14788 1 
13040 14790 14788 1 
13041 14792 14791 1 
13042 14793 14791 1 
13043 14795 14794 1 
13044 14796 14794 1 
13045 14798 14797 1 
13046 14799 14797 1 
13047 14801 14800 1 
13048 14802 14800 1 
13049 14804 14803 1 
13050 14805 14803 1 
13051 14807 14806 1 
13052 14808 14806 1 
13053 14809 14810 1 
13054 14809 14811 1 
13055 14812 14814 1 
13056 14812 14813 1 
13057 14816 14815 1 
13058 14817 14815 1 
13059 14819 14818 1 
13060 14820 14818 1 
13061 14822 14821 1 
13062 14823 14821 1 
13063 14824 14826 1 
13064 14825 14824 1 
13065 14828 14827 1 
13066 14829 14827 1 
13067 14831 14830 1 
13068 14832 14830 1 
13069 14834 14833 1 
13070 14835 14833 1 
13071 14837 14836 1 
13072 14838 14836 1 
13073 14839 14841 1 
13074 14840 14839 1 
13075 14843 14842 1 
13076 14844 14842 1 
13077 14845 14846 1 
13078 14845 14847 1 
13079 14849 14848 1 
13080 14850 14848 1 
13081 14852 14851 1 
13082 14853 14851 1 
13083 14855 14854 1 
13084 14856 14854 1 
13085 14858 14857 1 
13086 14859 14857 1 
13087 14861 14860 1 
13088 14862 14860 1 
13089 14864 14863 1 
13090 14865 14863 1 
13091 14867 14866 1 
13092 14868 14866 1 
13093 14870 14869 1 
13094 14871 14869 1 
13095 14873 14872 1 
13096 14874 14872 1 
13097 14875 14877 1 
13098 14876 14875 1 
13099 14879 14878 1 
13100 14880 14878 1 
13101 14882 14881 1 
13102 14883 14881 1 
13103 14885 14884 1 
13104 14886 14884 1 
13105 14887 14889 1 
13106 14887 14888 1 
13107 14890 14892 1 
13108 14891 14890 1 
13109 14894 14893 1 
13110 14895 14893 1 
13111 14897 14896 1 
13112 14898 14896 1 
13113 14899 14900 1 
13114 14899 14901 1 
13115 14903 14902 1 
13116 14904 14902 1 
13117 14905 14907 1 
13118 14906 14905 1 
13119 14909 14908 1 
13120 14910 14908 1 
13121 14912 14911 1 
13122 14913 14911 1 
13123 14915 14914 1 
13124 14916 14914 1 
13125 14918 14917 1 
13126 14919 14917 1 
13127 14921 14920 1 
13128 14922 14920 1 
13129 14924 14923 1 
13130 14925 14923 1 
13131 14926 14927 1 
13132 14926 14928 1 
13133 14929 14930 1 
13134 14929 14931 1 
13135 14933 14932 1 
13136 14934 14932 1 
13137 14936 14935 1 
13138 14937 14935 1 
13139 14939 14938 1 
13140 14940 14938 1 
13141 14942 14941 1 
13142 14943 14941 1 
13143 14945 14944 1 
13144 14946 14944 1 
13145 14948 14947 1 
13146 14949 14947 1 
13147 14950 14952 1 
13148 14951 14950 1 
13149 14954 14953 1 
13150 14955 14953 1 
13151 14957 14956 1 
13152 14958 14956 1 
13153 14960 14959 1 
13154 14961 14959 1 
13155 14963 14962 1 
13156 14964 14962 1 
13157 14965 14966 1 
13158 14965 14967 1 
13159 14969 14968 1 
13160 14970 14968 1 
13161 14972 14971 1 
13162 14973 14971 1 
13163 14975 14974 1 
13164 14976 14974 1 
13165 14978 14977 1 
13166 14979 14977 1 
13167 14980 14982 1 
13168 14981 14980 1 
13169 14984 14983 1 
13170 14985 14983 1 
13171 14987 14986 1 
13172 14988 14986 1 
13173 14990 14989 1 
13174 14991 14989 1 
13175 14993 14992 1 
13176 14994 14992 1 
13177 14996 14995 1 
13178 14997 14995 1 
13179 14999 14998 1 
13180 15000 14998 1 
13181 15002 15001 1 
13182 15003 15001 1 
13183 15004 15005 1 
13184 15004 15006 1 
13185 15008 15007 1 
13186 15009 15007 1 
13187 15010 15012 1 
13188 15011 15010 1 
13189 15014 15013 1 
13190 15015 15013 1 
13191 15017 15016 1 
13192 15018 15016 1 
13193 15020 15019 1 
13194 15021 15019 1 
13195 15023 15022 1 
13196 15024 15022 1 
13197 15026 15025 1 
13198 15027 15025 1 
13199 15029 15028 1 
13200 15030 15028 1 
13201 15031 15033 1 
13202 15032 15031 1 
13203 15034 15036 1 
13204 15034 15035 1 
13205 15037 15039 1 
13206 15038 15037 1 
13207 15041 15040 1 
13208 15042 15040 1 
13209 15044 15043 1 
13210 15045 15043 1 
13211 15047 15046 1 
13212 15048 15046 1 
13213 15050 15049 1 
13214 15051 15049 1 
13215 15053 15052 1 
13216 15054 15052 1 
13217 15056 15055 1 
13218 15057 15055 1 
13219 15058 15060 1 
13220 15059 15058 1 
13221 15062 15061 1 
13222 15063 15061 1 
13223 15065 15064 1 
13224 15066 15064 1 
13225 15068 15067 1 
13226 15069 15067 1 
13227 15070 15072 1 
13228 15071 15070 1 
13229 15074 15073 1 
13230 15075 15073 1 
13231 15077 15076 1 
13232 15078 15076 1 
13233 15080 15079 1 
13234 15081 15079 1 
13235 15083 15082 1 
13236 15084 15082 1 
13237 15085 15087 1 
13238 15086 15085 1 
13239 15089 15088 1 
13240 15090 15088 1 
13241 15092 15091 1 
13242 15093 15091 1 
13243 15095 15094 1 
13244 15096 15094 1 
13245 15097 15099 1 
13246 15098 15097 1 
13247 15101 15100 1 
13248 15102 15100 1 
13249 15104 15103 1 
13250 15105 15103 1 
13251 15106 15107 1 
13252 15106 15108 1 
13253 15110 15109 1 
13254 15111 15109 1 
13255 15113 15112 1 
13256 15114 15112 1 
13257 15116 15115 1 
13258 15117 15115 1 
13259 15119 15118 1 
13260 15120 15118 1 
13261 15122 15121 1 
13262 15123 15121 1 
13263 15125 15124 1 
13264 15126 15124 1 
13265 15128 15127 1 
13266 15129 15127 1 
13267 15131 15130 1 
13268 15132 15130 1 
13269 15134 15133 1 
13270 15135 15133 1 
13271 15136 15138 1 
13272 15137 15136 1 
13273 15140 15139 1 
13274 15141 15139 1 
13275 15143 15142 1 
13276 15144 15142 1 
13277 15146 15145 1 
13278 15147 15145 1 
13279 15148 15150 1 
13280 15149 15148 1 
13281 15152 15151 1 
13282 15153 15151 1 
13283 15155 15154 1 
13284 15156 15154 1 
13285 15158 15157 1 
13286 15159 15157 1 
13287 15161 15160 1 
13288 15162 15160 1 
13289 15164 15163 1 
13290 15165 15163 1 
13291 15167 15166 1 
13292 15168 15166 1 
13293 15169 15171 1 
13294 15170 15169 1 
13295 15173 15172 1 
13296 15174 15172 1 
13297 15176 15175 1 
13298 15177 15175 1 
13299 15179 15178 1 
13300 15180 15178 1 
13301 15181 15183 1 
13302 15181 15182 1 
13303 15185 15184 1 
13304 15186 15184 1 
13305 15188 15187 1 
13306 15189 15187 1 
13307 15191 15190 1 
13308 15192 15190 1 
13309 15193 15195 1 
13310 15194 15193 1 
13311 15197 15196 1 
13312 15198 15196 1 
13313 15199 15200 1 
13314 15199 15201 1 
13315 15203 15202 1 
13316 15204 15202 1 
13317 15206 15205 1 
13318 15207 15205 1 
13319 15209 15208 1 
13320 15210 15208 1 
13321 15212 15211 1 
13322 15213 15211 1 
13323 15214 15216 1 
13324 15214 15215 1 
13325 15218 15217 1 
13326 15219 15217 1 
13327 15221 15220 1 
13328 15222 15220 1 
13329 15224 15223 1 
13330 15225 15223 1 
13331 15227 15226 1 
13332 15228 15226 1 
13333 15230 15229 1 
13334 15231 15229 1 
13335 15233 15232 1 
13336 15234 15232 1 
13337 15236 15235 1 
13338 15237 15235 1 
13339 15239 15238 1 
13340 15240 15238 1 
13341 15242 15241 1 
13342 15243 15241 1 
13343 15245 15244 1 
13344 15246 15244 1 
13345 15248 15247 1 
13346 15249 15247 1 
13347 15251 15250 1 
13348 15252 15250 1 
13349 15254 15253 1 
13350 15255 15253 1 
13351 15256 15257 1 
13352 15256 15258 1 
13353 15260 15259 1 
13354 15261 15259 1 
13355 15263 15262 1 
13356 15264 15262 1 
13357 15266 15265 1 
13358 15267 15265 1 
13359 15269 15268 1 
13360 15270 15268 1 
13361 15272 15271 1 
13362 15273 15271 1 
13363 15275 15274 1 
13364 15276 15274 1 
13365 15277 15279 1 
13366 15278 15277 1 
13367 15280 15281 1 
13368 15280 15282 1 
13369 15284 15283 1 
13370 15285 15283 1 
13371 15287 15286 1 
13372 15288 15286 1 
13373 15290 15289 1 
13374 15291 15289 1 
13375 15293 15292 1 
13376 15294 15292 1 
13377 15295 15297 1 
13378 15296 15295 1 
13379 15299 15298 1 
13380 15300 15298 1 
13381 15302 15301 1 
13382 15303 15301 1 
13383 15304 15305 1 
13384 15304 15306 1 
13385 15308 15307 1 
13386 15309 15307 1 
13387 15311 15310 1 
13388 15312 15310 1 
13389 15314 15313 1 
13390 15315 15313 1 
13391 15317 15316 1 
13392 15318 15316 1 
13393 15320 15319 1 
13394 15321 15319 1 
13395 15323 15322 1 
13396 15324 15322 1 
13397 15326 15325 1 
13398 15327 15325 1 
13399 15329 15328 1 
13400 15330 15328 1 
13401 15331 15332 1 
13402 15331 15333 1 
13403 15334 15335 1 
13404 15334 15336 1 
13405 15337 15338 1 
13406 15337 15339 1 
13407 15340 15342 1 
13408 15341 15340 1 
13409 15344 15343 1 
13410 15345 15343 1 
13411 15347 15346 1 
13412 15348 15346 1 
13413 15350 15349 1 
13414 15351 15349 1 
13415 15353 15352 1 
13416 15354 15352 1 
13417 15356 15355 1 
13418 15357 15355 1 
13419 15359 15358 1 
13420 15360 15358 1 
13421 15361 15363 1 
13422 15362 15361 1 
13423 15364 15365 1 
13424 15364 15366 1 
13425 15368 15367 1 
13426 15369 15367 1 
13427 15371 15370 1 
13428 15372 15370 1 
13429 15374 15373 1 
13430 15375 15373 1 
13431 15377 15376 1 
13432 15378 15376 1 
13433 15380 15379 1 
13434 15381 15379 1 
13435 15383 15382 1 
13436 15384 15382 1 
13437 15386 15385 1 
13438 15387 15385 1 
13439 15388 15389 1 
13440 15388 15390 1 
13441 15392 15391 1 
13442 15393 15391 1 
13443 15395 15394 1 
13444 15396 15394 1 
13445 15398 15397 1 
13446 15399 15397 1 
13447 15401 15400 1 
13448 15402 15400 1 
13449 15404 15403 1 
13450 15405 15403 1 
13451 15407 15406 1 
13452 15408 15406 1 
13453 15410 15409 1 
13454 15411 15409 1 
13455 15413 15412 1 
13456 15414 15412 1 
13457 15416 15415 1 
13458 15417 15415 1 
13459 15419 15418 1 
13460 15420 15418 1 
13461 15422 15421 1 
13462 15423 15421 1 
13463 15424 15425 1 
13464 15424 15426 1 
13465 15427 15429 1 
13466 15428 15427 1 
13467 15431 15430 1 
13468 15432 15430 1 
13469 15434 15433 1 
13470 15435 15433 1 
13471 15437 15436 1 
13472 15438 15436 1 
13473 15440 15439 1 
13474 15441 15439 1 
13475 15443 15442 1 
13476 15444 15442 1 
13477 15446 15445 1 
13478 15447 15445 1 
13479 15449 15448 1 
13480 15450 15448 1 
13481 15451 15452 1 
13482 15451 15453 1 
13483 15455 15454 1 
13484 15456 15454 1 
13485 15458 15457 1 
13486 15459 15457 1 
13487 15460 15462 1 
13488 15461 15460 1 
13489 15464 15463 1 
13490 15465 15463 1 
13491 15467 15466 1 
13492 15468 15466 1 
13493 15470 15469 1 
13494 15471 15469 1 
13495 15472 15474 1 
13496 15472 15473 1 
13497 15476 15475 1 
13498 15477 15475 1 
13499 15479 15478 1 
13500 15480 15478 1 
13501 15482 15481 1 
13502 15483 15481 1 
13503 15485 15484 1 
13504 15486 15484 1 
13505 15488 15487 1 
13506 15489 15487 1 
13507 15491 15490 1 
13508 15492 15490 1 
13509 15493 15495 1 
13510 15494 15493 1 
13511 15497 15496 1 
13512 15498 15496 1 
13513 15500 15499 1 
13514 15501 15499 1 
13515 15503 15502 1 
13516 15504 15502 1 
13517 15506 15505 1 
13518 15507 15505 1 
13519 15509 15508 1 
13520 15510 15508 1 
13521 15511 15512 1 
13522 15511 15513 1 
13523 15515 15514 1 
13524 15516 15514 1 
13525 15518 15517 1 
13526 15519 15517 1 
13527 15521 15520 1 
13528 15522 15520 1 
13529 15524 15523 1 
13530 15525 15523 1 
13531 15526 15527 1 
13532 15526 15528 1 
13533 15530 15529 1 
13534 15531 15529 1 
13535 15533 15532 1 
13536 15534 15532 1 
13537 15535 15537 1 
13538 15536 15535 1 
13539 15539 15538 1 
13540 15540 15538 1 
13541 15542 15541 1 
13542 15543 15541 1 
13543 15544 15546 1 
13544 15545 15544 1 
13545 15548 15547 1 
13546 15549 15547 1 
13547 15551 15550 1 
13548 15552 15550 1 
13549 15554 15553 1 
13550 15555 15553 1 
13551 15556 15558 1 
13552 15557 15556 1 
13553 15560 15559 1 
13554 15561 15559 1 
13555 15562 15563 1 
13556 15562 15564 1 
13557 15566 15565 1 
13558 15567 15565 1 
13559 15569 15568 1 
13560 15570 15568 1 
13561 15572 15571 1 
13562 15573 15571 1 
13563 15575 15574 1 
13564 15576 15574 1 
13565 15578 15577 1 
13566 15579 15577 1 
13567 15581 15580 1 
13568 15582 15580 1 
13569 15584 15583 1 
13570 15585 15583 1 
13571 15587 15586 1 
13572 15588 15586 1 
13573 15590 15589 1 
13574 15591 15589 1 
13575 15593 15592 1 
13576 15594 15592 1 
13577 15596 15595 1 
13578 15597 15595 1 
13579 15599 15598 1 
13580 15600 15598 1 
13581 15602 15601 1 
13582 15603 15601 1 
13583 15604 15606 1 
13584 15605 15604 1 
13585 15608 15607 1 
13586 15609 15607 1 
13587 15610 15611 1 
13588 15610 15612 1 
13589 15614 15613 1 
13590 15615 15613 1 
13591 15617 15616 1 
13592 15618 15616 1 
13593 15620 15619 1 
13594 15621 15619 1 
13595 15622 15624 1 
13596 15623 15622 1 
13597 15625 15627 1 
13598 15626 15625 1 
13599 15629 15628 1 
13600 15630 15628 1 
13601 15632 15631 1 
13602 15633 15631 1 
13603 15635 15634 1 
13604 15636 15634 1 
13605 15637 15638 1 
13606 15637 15639 1 
13607 15640 15642 1 
13608 15641 15640 1 
13609 15644 15643 1 
13610 15645 15643 1 
13611 15647 15646 1 
13612 15648 15646 1 
13613 15650 15649 1 
13614 15651 15649 1 
13615 15653 15652 1 
13616 15654 15652 1 
13617 15655 15657 1 
13618 15656 15655 1 
13619 15659 15658 1 
13620 15660 15658 1 
13621 15662 15661 1 
13622 15663 15661 1 
13623 15665 15664 1 
13624 15666 15664 1 
13625 15667 15669 1 
13626 15668 15667 1 
13627 15671 15670 1 
13628 15672 15670 1 
13629 15674 15673 1 
13630 15675 15673 1 
13631 15677 15676 1 
13632 15678 15676 1 
13633 15680 15679 1 
13634 15681 15679 1 
13635 15683 15682 1 
13636 15684 15682 1 
13637 15686 15685 1 
13638 15687 15685 1 
13639 15689 15688 1 
13640 15690 15688 1 
13641 15692 15691 1 
13642 15693 15691 1 
13643 15695 15694 1 
13644 15696 15694 1 
13645 15697 15699 1 
13646 15698 15697 1 
13647 15701 15700 1 
13648 15702 15700 1 
13649 15704 15703 1 
13650 15705 15703 1 
13651 15707 15706 1 
13652 15708 15706 1 
13653 15710 15709 1 
13654 15711 15709 1 
13655 15713 15712 1 
13656 15714 15712 1 
13657 15716 15715 1 
13658 15717 15715 1 
13659 15719 15718 1 
13660 15720 15718 1 
13661 15722 15721 1 
13662 15723 15721 1 
13663 15724 15725 1 
13664 15724 15726 1 
13665 15728 15727 1 
13666 15729 15727 1 
13667 15731 15730 1 
13668 15732 15730 1 
13669 15733 15734 1 
13670 15733 15735 1 
13671 15737 15736 1 
13672 15738 15736 1 
13673 15740 15739 1 
13674 15741 15739 1 
13675 15742 15744 1 
13676 15743 15742 1 
13677 15745 15746 1 
13678 15745 15747 1 
13679 15748 15750 1 
13680 15749 15748 1 
13681 15752 15751 1 
13682 15753 15751 1 
13683 15755 15754 1 
13684 15756 15754 1 
13685 15758 15757 1 
13686 15759 15757 1 
13687 15761 15760 1 
13688 15762 15760 1 
13689 15764 15763 1 
13690 15765 15763 1 
13691 15766 15768 1 
13692 15767 15766 1 
13693 15770 15769 1 
13694 15771 15769 1 
13695 15772 15774 1 
13696 15773 15772 1 
13697 15776 15775 1 
13698 15777 15775 1 
13699 15778 15780 1 
13700 15779 15778 1 
13701 15782 15781 1 
13702 15783 15781 1 
13703 15785 15784 1 
13704 15786 15784 1 
13705 15788 15787 1 
13706 15789 15787 1 
13707 15790 15791 1 
13708 15790 15792 1 
13709 15794 15793 1 
13710 15795 15793 1 
13711 15797 15796 1 
13712 15798 15796 1 
13713 15799 15800 1 
13714 15799 15801 1 
13715 15803 15802 1 
13716 15804 15802 1 
13717 15806 15805 1 
13718 15807 15805 1 
13719 15809 15808 1 
13720 15810 15808 1 
13721 15812 15811 1 
13722 15813 15811 1 
13723 15815 15814 1 
13724 15816 15814 1 
13725 15818 15817 1 
13726 15819 15817 1 
13727 15821 15820 1 
13728 15822 15820 1 
13729 15823 15824 1 
13730 15823 15825 1 
13731 15827 15826 1 
13732 15828 15826 1 
13733 15830 15829 1 
13734 15831 15829 1 
13735 15833 15832 1 
13736 15834 15832 1 
13737 15835 15837 1 
13738 15836 15835 1 
13739 15839 15838 1 
13740 15840 15838 1 
13741 15842 15841 1 
13742 15843 15841 1 
13743 15844 15845 1 
13744 15844 15846 1 
13745 15848 15847 1 
13746 15849 15847 1 
13747 15851 15850 1 
13748 15852 15850 1 
13749 15854 15853 1 
13750 15855 15853 1 
13751 15857 15856 1 
13752 15858 15856 1 
13753 15860 15859 1 
13754 15861 15859 1 
13755 15862 15864 1 
13756 15863 15862 1 
13757 15865 15866 1 
13758 15865 15867 1 
13759 15869 15868 1 
13760 15870 15868 1 
13761 15872 15871 1 
13762 15873 15871 1 
13763 15875 15874 1 
13764 15876 15874 1 
13765 15878 15877 1 
13766 15879 15877 1 
13767 15881 15880 1 
13768 15882 15880 1 
13769 15883 15885 1 
13770 15884 15883 1 
13771 15887 15886 1 
13772 15888 15886 1 
13773 15890 15889 1 
13774 15891 15889 1 
13775 15892 15893 1 
13776 15892 15894 1 
13777 15896 15895 1 
13778 15897 15895 1 
13779 15898 15900 1 
13780 15898 15899 1 
13781 15901 15903 1 
13782 15902 15901 1 
13783 15905 15904 1 
13784 15906 15904 1 
13785 15908 15907 1 
13786 15909 15907 1 
13787 15911 15910 1 
13788 15912 15910 1 
13789 15914 15913 1 
13790 15915 15913 1 
13791 15917 15916 1 
13792 15918 15916 1 
13793 15920 15919 1 
13794 15921 15919 1 
13795 15923 15922 1 
13796 15924 15922 1 
13797 15926 15925 1 
13798 15927 15925 1 
13799 15929 15928 1 
13800 15930 15928 1 
13801 15932 15931 1 
13802 15933 15931 1 
13803 15935 15934 1 
13804 15936 15934 1 
13805 15938 15937 1 
13806 15939 15937 1 
13807 15941 15940 1 
13808 15942 15940 1 
13809 15944 15943 1 
13810 15945 15943 1 
13811 15947 15946 1 
13812 15948 15946 1 
13813 15950 15949 1 
13814 15951 15949 1 
13815 15953 15952 1 
13816 15954 15952 1 
13817 15956 15955 1 
13818 15957 15955 1 
13819 15959 15958 1 
13820 15960 15958 1 
13821 15962 15961 1 
13822 15963 15961 1 
13823 15965 15964 1 
13824 15966 15964 1 
13825 15967 15969 1 
13826 15968 15967 1 
13827 15970 15972 1 
13828 15971 15970 1 
13829 15974 15973 1 
13830 15975 15973 1 
13831 15976 15977 1 
13832 15976 15978 1 
13833 15980 15979 1 
13834 15981 15979 1 
13835 15983 15982 1 
13836 15984 15982 1 
13837 15986 15985 1 
13838 15987 15985 1 
13839 15989 15988 1 
13840 15990 15988 1 
13841 15992 15991 1 
13842 15993 15991 1 
13843 15995 15994 1 
13844 15996 15994 1 
13845 15998 15997 1 
13846 15999 15997 1 
13847 16000 16002 1 
13848 16001 16000 1 
13849 16004 16003 1 
13850 16005 16003 1 
13851 16006 16007 1 
13852 16006 16008 1 
13853 16010 16009 1 
13854 16011 16009 1 
13855 16013 16012 1 
13856 16014 16012 1 
13857 16016 16015 1 
13858 16017 16015 1 
13859 16019 16018 1 
13860 16020 16018 1 
13861 16022 16021 1 
13862 16023 16021 1 
13863 16025 16024 1 
13864 16026 16024 1 
13865 16028 16027 1 
13866 16029 16027 1 
13867 16031 16030 1 
13868 16032 16030 1 
13869 16034 16033 1 
13870 16035 16033 1 
13871 16036 16037 1 
13872 16036 16038 1 
13873 16040 16039 1 
13874 16041 16039 1 
13875 16043 16042 1 
13876 16044 16042 1 
13877 16046 16045 1 
13878 16047 16045 1 
13879 16049 16048 1 
13880 16050 16048 1 
13881 16052 16051 1 
13882 16053 16051 1 
13883 16055 16054 1 
13884 16056 16054 1 
13885 16058 16057 1 
13886 16059 16057 1 
13887 16061 16060 1 
13888 16062 16060 1 
13889 16064 16063 1 
13890 16065 16063 1 
13891 16067 16066 1 
13892 16068 16066 1 
13893 16070 16069 1 
13894 16071 16069 1 
13895 16073 16072 1 
13896 16074 16072 1 
13897 16076 16075 1 
13898 16077 16075 1 
13899 16079 16078 1 
13900 16080 16078 1 
13901 16082 16081 1 
13902 16083 16081 1 
13903 16084 16085 1 
13904 16084 16086 1 
13905 16088 16087 1 
13906 16089 16087 1 
13907 16091 16090 1 
13908 16092 16090 1 
13909 16094 16093 1 
13910 16095 16093 1 
13911 16097 16096 1 
13912 16098 16096 1 
13913 16100 16099 1 
13914 16101 16099 1 
13915 16102 16104 1 
13916 16103 16102 1 
13917 16106 16105 1 
13918 16107 16105 1 
13919 16109 16108 1 
13920 16110 16108 1 
13921 16112 16111 1 
13922 16113 16111 1 
13923 16114 16115 1 
13924 16114 16116 1 
13925 16118 16117 1 
13926 16119 16117 1 
13927 16121 16120 1 
13928 16122 16120 1 
13929 16124 16123 1 
13930 16125 16123 1 
13931 16126 16127 1 
13932 16126 16128 1 
13933 16130 16129 1 
13934 16131 16129 1 
13935 16133 16132 1 
13936 16134 16132 1 
13937 16136 16135 1 
13938 16137 16135 1 
13939 16139 16138 1 
13940 16140 16138 1 
13941 16141 16143 1 
13942 16141 16142 1 
13943 16145 16144 1 
13944 16146 16144 1 
13945 16148 16147 1 
13946 16149 16147 1 
13947 16151 16150 1 
13948 16152 16150 1 
13949 16154 16153 1 
13950 16155 16153 1 
13951 16156 16158 1 
13952 16157 16156 1 
13953 16160 16159 1 
13954 16161 16159 1 
13955 16163 16162 1 
13956 16164 16162 1 
13957 16166 16165 1 
13958 16167 16165 1 
13959 16169 16168 1 
13960 16170 16168 1 
13961 16172 16171 1 
13962 16173 16171 1 
13963 16175 16174 1 
13964 16176 16174 1 
13965 16177 16179 1 
13966 16178 16177 1 
13967 16180 16181 1 
13968 16180 16182 1 
13969 16183 16184 1 
13970 16183 16185 1 
13971 16187 16186 1 
13972 16188 16186 1 
13973 16189 16190 1 
13974 16189 16191 1 
13975 16193 16192 1 
13976 16194 16192 1 
13977 16195 16197 1 
13978 16196 16195 1 
13979 16199 16198 1 
13980 16200 16198 1 
13981 16202 16201 1 
13982 16203 16201 1 
13983 16205 16204 1 
13984 16206 16204 1 
13985 16208 16207 1 
13986 16209 16207 1 
13987 16211 16210 1 
13988 16212 16210 1 
13989 16214 16213 1 
13990 16215 16213 1 
13991 16217 16216 1 
13992 16218 16216 1 
13993 16220 16219 1 
13994 16221 16219 1 
13995 16223 16222 1 
13996 16224 16222 1 
13997 16225 16227 1 
13998 16226 16225 1 
13999 16229 16228 1 
14000 16230 16228 1 
14001 16232 16231 1 
14002 16233 16231 1 
14003 16235 16234 1 
14004 16236 16234 1 
14005 16238 16237 1 
14006 16239 16237 1 
14007 16241 16240 1 
14008 16242 16240 1 
14009 16244 16243 1 
14010 16245 16243 1 
14011 16247 16246 1 
14012 16248 16246 1 
14013 16250 16249 1 
14014 16251 16249 1 
14015 16253 16252 1 
14016 16254 16252 1 
14017 16255 16257 1 
14018 16256 16255 1 
14019 16259 16258 1 
14020 16260 16258 1 
14021 16261 16262 1 
14022 16261 16263 1 
14023 16265 16264 1 
14024 16266 16264 1 
14025 16268 16267 1 
14026 16269 16267 1 
14027 16271 16270 1 
14028 16272 16270 1 
14029 16274 16273 1 
14030 16275 16273 1 
14031 16277 16276 1 
14032 16278 16276 1 
14033 16280 16279 1 
14034 16281 16279 1 
14035 16282 16284 1 
14036 16283 16282 1 
14037 16285 16287 1 
14038 16286 16285 1 
14039 16289 16288 1 
14040 16290 16288 1 
14041 16291 16292 1 
14042 16291 16293 1 
14043 16295 16294 1 
14044 16296 16294 1 
14045 16298 16297 1 
14046 16299 16297 1 
14047 16301 16300 1 
14048 16302 16300 1 
14049 16304 16303 1 
14050 16305 16303 1 
14051 16307 16306 1 
14052 16308 16306 1 
14053 16310 16309 1 
14054 16311 16309 1 
14055 16313 16312 1 
14056 16314 16312 1 
14057 16316 16315 1 
14058 16317 16315 1 
14059 16318 16320 1 
14060 16319 16318 1 
14061 16322 16321 1 
14062 16323 16321 1 
14063 16325 16324 1 
14064 16326 16324 1 
14065 16328 16327 1 
14066 16329 16327 1 
14067 16331 16330 1 
14068 16332 16330 1 
14069 16334 16333 1 
14070 16335 16333 1 
14071 16336 16338 1 
14072 16337 16336 1 
14073 16340 16339 1 
14074 16341 16339 1 
14075 16343 16342 1 
14076 16344 16342 1 
14077 16345 16346 1 
14078 16345 16347 1 
14079 16349 16348 1 
14080 16350 16348 1 
14081 16351 16353 1 
14082 16352 16351 1 
14083 16355 16354 1 
14084 16356 16354 1 
14085 16358 16357 1 
14086 16359 16357 1 
14087 16361 16360 1 
14088 16362 16360 1 
14089 16364 16363 1 
14090 16365 16363 1 
14091 16367 16366 1 
14092 16368 16366 1 
14093 16370 16369 1 
14094 16371 16369 1 
14095 16373 16372 1 
14096 16374 16372 1 
14097 16376 16375 1 
14098 16377 16375 1 
14099 16379 16378 1 
14100 16380 16378 1 
14101 16381 16383 1 
14102 16382 16381 1 
14103 16385 16384 1 
14104 16386 16384 1 
14105 16387 16388 1 
14106 16387 16389 1 
14107 16391 16390 1 
14108 16392 16390 1 
14109 16394 16393 1 
14110 16395 16393 1 
14111 16397 16396 1 
14112 16398 16396 1 
14113 16399 16400 1 
14114 16399 16401 1 
14115 16403 16402 1 
14116 16404 16402 1 
14117 16406 16405 1 
14118 16407 16405 1 
14119 16408 16410 1 
14120 16409 16408 1 
14121 16411 16412 1 
14122 16411 16413 1 
14123 16414 16416 1 
14124 16415 16414 1 
14125 16418 16417 1 
14126 16419 16417 1 
14127 16421 16420 1 
14128 16422 16420 1 
14129 16424 16423 1 
14130 16425 16423 1 
14131 16427 16426 1 
14132 16428 16426 1 
14133 16430 16429 1 
14134 16431 16429 1 
14135 16432 16433 1 
14136 16432 16434 1 
14137 16436 16435 1 
14138 16437 16435 1 
14139 16439 16438 1 
14140 16440 16438 1 
14141 16442 16441 1 
14142 16443 16441 1 
14143 16445 16444 1 
14144 16446 16444 1 
14145 16447 16449 1 
14146 16448 16447 1 
14147 16451 16450 1 
14148 16452 16450 1 
14149 16454 16453 1 
14150 16455 16453 1 
14151 16457 16456 1 
14152 16458 16456 1 
14153 16460 16459 1 
14154 16461 16459 1 
14155 16463 16462 1 
14156 16464 16462 1 
14157 16466 16465 1 
14158 16467 16465 1 
14159 16469 16468 1 
14160 16470 16468 1 
14161 16472 16471 1 
14162 16473 16471 1 
14163 16475 16474 1 
14164 16476 16474 1 
14165 16477 16479 1 
14166 16478 16477 1 
14167 16481 16480 1 
14168 16482 16480 1 
14169 16484 16483 1 
14170 16485 16483 1 
14171 16487 16486 1 
14172 16488 16486 1 
14173 16490 16489 1 
14174 16491 16489 1 
14175 16492 16493 1 
14176 16492 16494 1 
14177 16496 16495 1 
14178 16497 16495 1 
14179 16498 16500 1 
14180 16499 16498 1 
14181 16502 16501 1 
14182 16503 16501 1 
14183 16504 16505 1 
14184 16504 16506 1 
14185 16508 16507 1 
14186 16509 16507 1 
14187 16511 16510 1 
14188 16512 16510 1 
14189 16514 16513 1 
14190 16515 16513 1 
14191 16517 16516 1 
14192 16518 16516 1 
14193 16519 16521 1 
14194 16520 16519 1 
14195 16523 16522 1 
14196 16524 16522 1 
14197 16526 16525 1 
14198 16527 16525 1 
14199 16529 16528 1 
14200 16530 16528 1 
14201 16531 16533 1 
14202 16532 16531 1 
14203 16535 16534 1 
14204 16536 16534 1 
14205 16538 16537 1 
14206 16539 16537 1 
14207 16540 16541 1 
14208 16540 16542 1 
14209 16544 16543 1 
14210 16545 16543 1 
14211 16547 16546 1 
14212 16548 16546 1 
14213 16550 16549 1 
14214 16551 16549 1 
14215 16553 16552 1 
14216 16554 16552 1 
14217 16556 16555 1 
14218 16557 16555 1 
14219 16559 16558 1 
14220 16560 16558 1 
14221 16562 16561 1 
14222 16563 16561 1 
14223 16564 16566 1 
14224 16565 16564 1 
14225 16567 16568 1 
14226 16567 16569 1 
14227 16571 16570 1 
14228 16572 16570 1 
14229 16574 16573 1 
14230 16575 16573 1 
14231 16576 16577 1 
14232 16576 16578 1 
14233 16579 16581 1 
14234 16580 16579 1 
14235 16583 16582 1 
14236 16584 16582 1 
14237 16586 16585 1 
14238 16587 16585 1 
14239 16588 16590 1 
14240 16589 16588 1 
14241 16592 16591 1 
14242 16593 16591 1 
14243 16595 16594 1 
14244 16596 16594 1 
14245 16598 16597 1 
14246 16599 16597 1 
14247 16601 16600 1 
14248 16602 16600 1 
14249 16604 16603 1 
14250 16605 16603 1 
14251 16607 16606 1 
14252 16608 16606 1 
14253 16610 16609 1 
14254 16611 16609 1 
14255 16613 16612 1 
14256 16614 16612 1 
14257 16616 16615 1 
14258 16617 16615 1 
14259 16619 16618 1 
14260 16620 16618 1 
14261 16622 16621 1 
14262 16623 16621 1 
14263 16625 16624 1 
14264 16626 16624 1 
14265 16628 16627 1 
14266 16629 16627 1 
14267 16631 16630 1 
14268 16632 16630 1 
14269 16633 16635 1 
14270 16634 16633 1 
14271 16637 16636 1 
14272 16638 16636 1 
14273 16640 16639 1 
14274 16641 16639 1 
14275 16643 16642 1 
14276 16644 16642 1 
14277 16646 16645 1 
14278 16647 16645 1 
14279 16649 16648 1 
14280 16650 16648 1 
14281 16651 16653 1 
14282 16652 16651 1 
14283 16655 16654 1 
14284 16656 16654 1 
14285 16658 16657 1 
14286 16659 16657 1 
14287 16661 16660 1 
14288 16662 16660 1 
14289 16663 16664 1 
14290 16663 16665 1 
14291 16667 16666 1 
14292 16668 16666 1 
14293 16670 16669 1 
14294 16671 16669 1 
14295 16672 16674 1 
14296 16673 16672 1 
14297 16676 16675 1 
14298 16677 16675 1 
14299 16679 16678 1 
14300 16680 16678 1 
14301 16682 16681 1 
14302 16683 16681 1 
14303 16684 16686 1 
14304 16685 16684 1 
14305 16688 16687 1 
14306 16689 16687 1 
14307 16691 16690 1 
14308 16692 16690 1 
14309 16694 16693 1 
14310 16695 16693 1 
14311 16697 16696 1 
14312 16698 16696 1 
14313 16700 16699 1 
14314 16701 16699 1 
14315 16703 16702 1 
14316 16704 16702 1 
14317 16706 16705 1 
14318 16707 16705 1 
14319 16709 16708 1 
14320 16710 16708 1 
14321 16712 16711 1 
14322 16713 16711 1 
14323 16715 16714 1 
14324 16716 16714 1 
14325 16718 16717 1 
14326 16719 16717 1 
14327 16721 16720 1 
14328 16722 16720 1 
14329 16724 16723 1 
14330 16725 16723 1 
14331 16727 16726 1 
14332 16728 16726 1 
14333 16730 16729 1 
14334 16731 16729 1 
14335 16733 16732 1 
14336 16734 16732 1 
14337 16736 16735 1 
14338 16737 16735 1 
14339 16739 16738 1 
14340 16740 16738 1 
14341 16742 16741 1 
14342 16743 16741 1 
14343 16744 16746 1 
14344 16745 16744 1 
14345 16748 16747 1 
14346 16749 16747 1 
14347 16750 16751 1 
14348 16750 16752 1 
14349 16754 16753 1 
14350 16755 16753 1 
14351 16756 16758 1 
14352 16757 16756 1 
14353 16760 16759 1 
14354 16761 16759 1 
14355 16763 16762 1 
14356 16764 16762 1 
14357 16766 16765 1 
14358 16767 16765 1 
14359 16768 16769 1 
14360 16768 16770 1 
14361 16772 16771 1 
14362 16773 16771 1 
14363 16775 16774 1 
14364 16776 16774 1 
14365 16778 16777 1 
14366 16779 16777 1 
14367 16781 16780 1 
14368 16782 16780 1 
14369 16784 16783 1 
14370 16785 16783 1 
14371 16787 16786 1 
14372 16788 16786 1 
14373 16790 16789 1 
14374 16791 16789 1 
14375 16792 16794 1 
14376 16793 16792 1 
14377 16796 16795 1 
14378 16797 16795 1 
14379 16799 16798 1 
14380 16800 16798 1 
14381 16802 16801 1 
14382 16803 16801 1 
14383 16805 16804 1 
14384 16806 16804 1 
14385 16808 16807 1 
14386 16809 16807 1 
14387 16811 16810 1 
14388 16812 16810 1 
14389 16814 16813 1 
14390 16815 16813 1 
14391 16817 16816 1 
14392 16818 16816 1 
14393 16820 16819 1 
14394 16821 16819 1 
14395 16823 16822 1 
14396 16824 16822 1 
14397 16826 16825 1 
14398 16827 16825 1 
14399 16829 16828 1 
14400 16830 16828 1 
14401 16832 16831 1 
14402 16833 16831 1 
14403 16835 16834 1 
14404 16836 16834 1 
14405 16838 16837 1 
14406 16839 16837 1 
14407 16841 16840 1 
14408 16842 16840 1 
14409 16844 16843 1 
14410 16845 16843 1 
14411 16846 16848 1 
14412 16847 16846 1 
14413 16850 16849 1 
14414 16851 16849 1 
14415 16852 16853 1 
14416 16852 16854 1 
14417 16856 16855 1 
14418 16857 16855 1 
14419 16859 16858 1 
14420 16860 16858 1 
14421 16862 16861 1 
14422 16863 16861 1 
14423 16865 16864 1 
14424 16866 16864 1 
14425 16868 16867 1 
14426 16869 16867 1 
14427 16870 16872 1 
14428 16871 16870 1 
14429 16874 16873 1 
14430 16875 16873 1 
14431 16877 16876 1 
14432 16878 16876 1 
14433 16880 16879 1 
14434 16881 16879 1 
14435 16883 16882 1 
14436 16884 16882 1 
14437 16886 16885 1 
14438 16887 16885 1 
14439 16889 16888 1 
14440 16890 16888 1 
14441 16892 16891 1 
14442 16893 16891 1 
14443 16895 16894 1 
14444 16896 16894 1 
14445 16898 16897 1 
14446 16899 16897 1 
14447 16901 16900 1 
14448 16902 16900 1 
14449 16903 16905 1 
14450 16904 16903 1 
14451 16907 16906 1 
14452 16908 16906 1 
14453 16909 16910 1 
14454 16909 16911 1 
14455 16913 16912 1 
14456 16914 16912 1 
14457 16916 16915 1 
14458 16917 16915 1 
14459 16919 16918 1 
14460 16920 16918 1 
14461 16922 16921 1 
14462 16923 16921 1 
14463 16925 16924 1 
14464 16926 16924 1 
14465 16928 16927 1 
14466 16929 16927 1 
14467 16931 16930 1 
14468 16932 16930 1 
14469 16934 16933 1 
14470 16935 16933 1 
14471 16937 16936 1 
14472 16938 16936 1 
14473 16940 16939 1 
14474 16941 16939 1 
14475 16943 16942 1 
14476 16944 16942 1 
14477 16946 16945 1 
14478 16947 16945 1 
14479 16949 16948 1 
14480 16950 16948 1 
14481 16952 16951 1 
14482 16953 16951 1 
14483 16955 16954 1 
14484 16956 16954 1 
14485 16957 16958 1 
14486 16957 16959 1 
14487 16960 16961 1 
14488 16960 16962 1 
14489 16964 16963 1 
14490 16965 16963 1 
14491 16967 16966 1 
14492 16968 16966 1 
14493 16970 16969 1 
14494 16971 16969 1 
14495 16973 16972 1 
14496 16974 16972 1 
14497 16975 16976 1 
14498 16975 16977 1 
14499 16979 16978 1 
14500 16980 16978 1 
14501 16982 16981 1 
14502 16983 16981 1 
14503 16985 16984 1 
14504 16986 16984 1 
14505 16988 16987 1 
14506 16989 16987 1 
14507 16991 16990 1 
14508 16992 16990 1 
14509 16993 16994 1 
14510 16993 16995 1 
14511 16997 16996 1 
14512 16998 16996 1 
14513 17000 16999 1 
14514 17001 16999 1 
14515 17002 17004 1 
14516 17003 17002 1 
14517 17006 17005 1 
14518 17007 17005 1 
14519 17009 17008 1 
14520 17010 17008 1 
14521 17012 17011 1 
14522 17013 17011 1 
14523 17015 17014 1 
14524 17016 17014 1 
14525 17018 17017 1 
14526 17019 17017 1 
14527 17021 17020 1 
14528 17022 17020 1 
14529 17024 17023 1 
14530 17025 17023 1 
14531 17027 17026 1 
14532 17028 17026 1 
14533 17029 17031 1 
14534 17030 17029 1 
14535 17033 17032 1 
14536 17034 17032 1 
14537 17035 17036 1 
14538 17035 17037 1 
14539 17039 17038 1 
14540 17040 17038 1 
14541 17042 17041 1 
14542 17043 17041 1 
14543 17044 17045 1 
14544 17044 17046 1 
14545 17048 17047 1 
14546 17049 17047 1 
14547 17051 17050 1 
14548 17052 17050 1 
14549 17054 17053 1 
14550 17055 17053 1 
14551 17057 17056 1 
14552 17058 17056 1 
14553 17060 17059 1 
14554 17061 17059 1 
14555 17063 17062 1 
14556 17064 17062 1 
14557 17065 17067 1 
14558 17066 17065 1 
14559 17069 17068 1 
14560 17070 17068 1 
14561 17071 17073 1 
14562 17072 17071 1 
14563 17075 17074 1 
14564 17076 17074 1 
14565 17077 17079 1 
14566 17077 17078 1 
14567 17081 17080 1 
14568 17082 17080 1 
14569 17084 17083 1 
14570 17085 17083 1 
14571 17087 17086 1 
14572 17088 17086 1 
14573 17090 17089 1 
14574 17091 17089 1 
14575 17093 17092 1 
14576 17094 17092 1 
14577 17096 17095 1 
14578 17097 17095 1 
14579 17099 17098 1 
14580 17100 17098 1 
14581 17101 17103 1 
14582 17101 17102 1 
14583 17104 17105 1 
14584 17104 17106 1 
14585 17108 17107 1 
14586 17109 17107 1 
14587 17111 17110 1 
14588 17112 17110 1 
14589 17114 17113 1 
14590 17115 17113 1 
14591 17117 17116 1 
14592 17118 17116 1 
14593 17119 17121 1 
14594 17119 17120 1 
14595 17123 17122 1 
14596 17124 17122 1 
14597 17125 17126 1 
14598 17125 17127 1 
14599 17129 17128 1 
14600 17130 17128 1 
14601 17132 17131 1 
14602 17133 17131 1 
14603 17135 17134 1 
14604 17136 17134 1 
14605 17137 17138 1 
14606 17137 17139 1 
14607 17141 17140 1 
14608 17142 17140 1 
14609 17144 17143 1 
14610 17145 17143 1 
14611 17147 17146 1 
14612 17148 17146 1 
14613 17150 17149 1 
14614 17151 17149 1 
14615 17152 17154 1 
14616 17153 17152 1 
14617 17156 17155 1 
14618 17157 17155 1 
14619 17158 17159 1 
14620 17158 17160 1 
14621 17162 17161 1 
14622 17163 17161 1 
14623 17165 17164 1 
14624 17166 17164 1 
14625 17168 17167 1 
14626 17169 17167 1 
14627 17171 17170 1 
14628 17172 17170 1 
14629 17173 17174 1 
14630 17173 17175 1 
14631 17177 17176 1 
14632 17178 17176 1 
14633 17180 17179 1 
14634 17181 17179 1 
14635 17183 17182 1 
14636 17184 17182 1 
14637 17185 17187 1 
14638 17186 17185 1 
14639 17189 17188 1 
14640 17190 17188 1 
14641 17192 17191 1 
14642 17193 17191 1 
14643 17195 17194 1 
14644 17196 17194 1 
14645 17198 17197 1 
14646 17199 17197 1 
14647 17201 17200 1 
14648 17202 17200 1 
14649 17204 17203 1 
14650 17205 17203 1 
14651 17207 17206 1 
14652 17208 17206 1 
14653 17209 17210 1 
14654 17209 17211 1 
14655 17213 17212 1 
14656 17214 17212 1 
14657 17216 17215 1 
14658 17217 17215 1 
14659 17219 17218 1 
14660 17220 17218 1 
14661 17222 17221 1 
14662 17223 17221 1 
14663 17225 17224 1 
14664 17226 17224 1 
14665 17228 17227 1 
14666 17229 17227 1 
14667 17231 17230 1 
14668 17232 17230 1 
14669 17234 17233 1 
14670 17235 17233 1 
14671 17236 17237 1 
14672 17236 17238 1 
14673 17240 17239 1 
14674 17241 17239 1 
14675 17242 17244 1 
14676 17242 17243 1 
14677 17245 17247 1 
14678 17246 17245 1 
14679 17248 17249 1 
14680 17248 17250 1 
14681 17252 17251 1 
14682 17253 17251 1 
14683 17255 17254 1 
14684 17256 17254 1 
14685 17258 17257 1 
14686 17259 17257 1 
14687 17260 17262 1 
14688 17261 17260 1 
14689 17264 17263 1 
14690 17265 17263 1 
14691 17267 17266 1 
14692 17268 17266 1 
14693 17270 17269 1 
14694 17271 17269 1 
14695 17273 17272 1 
14696 17274 17272 1 
14697 17276 17275 1 
14698 17277 17275 1 
14699 17278 17279 1 
14700 17278 17280 1 
14701 17282 17281 1 
14702 17283 17281 1 
14703 17285 17284 1 
14704 17286 17284 1 
14705 17288 17287 1 
14706 17289 17287 1 
14707 17291 17290 1 
14708 17292 17290 1 
14709 17294 17293 1 
14710 17295 17293 1 
14711 17297 17296 1 
14712 17298 17296 1 
14713 17299 17301 1 
14714 17300 17299 1 
14715 17303 17302 1 
14716 17304 17302 1 
14717 17306 17305 1 
14718 17307 17305 1 
14719 17308 17310 1 
14720 17309 17308 1 
14721 17312 17311 1 
14722 17313 17311 1 
14723 17315 17314 1 
14724 17316 17314 1 
14725 17318 17317 1 
14726 17319 17317 1 
14727 17321 17320 1 
14728 17322 17320 1 
14729 17323 17325 1 
14730 17324 17323 1 
14731 17327 17326 1 
14732 17328 17326 1 
14733 17329 17331 1 
14734 17330 17329 1 
14735 17333 17332 1 
14736 17334 17332 1 
14737 17335 17337 1 
14738 17336 17335 1 
14739 17339 17338 1 
14740 17340 17338 1 
14741 17342 17341 1 
14742 17343 17341 1 
14743 17344 17345 1 
14744 17344 17346 1 
14745 17348 17347 1 
14746 17349 17347 1 
14747 17351 17350 1 
14748 17352 17350 1 
14749 17353 17355 1 
14750 17354 17353 1 
14751 17357 17356 1 
14752 17358 17356 1 
14753 17360 17359 1 
14754 17361 17359 1 
14755 17363 17362 1 
14756 17364 17362 1 
14757 17366 17365 1 
14758 17367 17365 1 
14759 17369 17368 1 
14760 17370 17368 1 
14761 17372 17371 1 
14762 17373 17371 1 
14763 17375 17374 1 
14764 17376 17374 1 
14765 17378 17377 1 
14766 17379 17377 1 
14767 17381 17380 1 
14768 17382 17380 1 
14769 17384 17383 1 
14770 17385 17383 1 
14771 17387 17386 1 
14772 17388 17386 1 
14773 17390 17389 1 
14774 17391 17389 1 
14775 17392 17393 1 
14776 17392 17394 1 
14777 17396 17395 1 
14778 17397 17395 1 
14779 17399 17398 1 
14780 17400 17398 1 
14781 17402 17401 1 
14782 17403 17401 1 
14783 17404 17405 1 
14784 17404 17406 1 
14785 17407 17409 1 
14786 17408 17407 1 
14787 17411 17410 1 
14788 17412 17410 1 
14789 17414 17413 1 
14790 17415 17413 1 
14791 17417 17416 1 
14792 17418 17416 1 
14793 17420 17419 1 
14794 17421 17419 1 
14795 17423 17422 1 
14796 17424 17422 1 
14797 17425 17427 1 
14798 17426 17425 1 
14799 17429 17428 1 
14800 17430 17428 1 
14801 17432 17431 1 
14802 17433 17431 1 
14803 17435 17434 1 
14804 17436 17434 1 
14805 17438 17437 1 
14806 17439 17437 1 
14807 17440 17442 1 
14808 17441 17440 1 
14809 17444 17443 1 
14810 17445 17443 1 
14811 17447 17446 1 
14812 17448 17446 1 
14813 17450 17449 1 
14814 17451 17449 1 
14815 17453 17452 1 
14816 17454 17452 1 
14817 17456 17455 1 
14818 17457 17455 1 
14819 17459 17458 1 
14820 17460 17458 1 
14821 17462 17461 1 
14822 17463 17461 1 
14823 17464 17465 1 
14824 17464 17466 1 
14825 17468 17467 1 
14826 17469 17467 1 
14827 17471 17470 1 
14828 17472 17470 1 
14829 17474 17473 1 
14830 17475 17473 1 
14831 17477 17476 1 
14832 17478 17476 1 
14833 17480 17479 1 
14834 17481 17479 1 
14835 17483 17482 1 
14836 17484 17482 1 
14837 17486 17485 1 
14838 17487 17485 1 
14839 17489 17488 1 
14840 17490 17488 1 
14841 17491 17493 1 
14842 17492 17491 1 
14843 17495 17494 1 
14844 17496 17494 1 
14845 17498 17497 1 
14846 17499 17497 1 
14847 17500 17501 1 
14848 17500 17502 1 
14849 17504 17503 1 
14850 17505 17503 1 
14851 17507 17506 1 
14852 17508 17506 1 
14853 17510 17509 1 
14854 17511 17509 1 
14855 17513 17512 1 
14856 17514 17512 1 
14857 17516 17515 1 
14858 17517 17515 1 
14859 17519 17518 1 
14860 17520 17518 1 
14861 17522 17521 1 
14862 17523 17521 1 
14863 17525 17524 1 
14864 17526 17524 1 
14865 17527 17528 1 
14866 17527 17529 1 
14867 17531 17530 1 
14868 17532 17530 1 
14869 17534 17533 1 
14870 17535 17533 1 
14871 17536 17537 1 
14872 17536 17538 1 
14873 17540 17539 1 
14874 17541 17539 1 
14875 17543 17542 1 
14876 17544 17542 1 
14877 17546 17545 1 
14878 17547 17545 1 
14879 17549 17548 1 
14880 17550 17548 1 
14881 17551 17553 1 
14882 17552 17551 1 
14883 17555 17554 1 
14884 17556 17554 1 
14885 17558 17557 1 
14886 17559 17557 1 
14887 17561 17560 1 
14888 17562 17560 1 
14889 17564 17563 1 
14890 17565 17563 1 
14891 17567 17566 1 
14892 17568 17566 1 
14893 17570 17569 1 
14894 17571 17569 1 
14895 17573 17572 1 
14896 17574 17572 1 
14897 17576 17575 1 
14898 17577 17575 1 
14899 17578 17580 1 
14900 17579 17578 1 
14901 17582 17581 1 
14902 17583 17581 1 
14903 17585 17584 1 
14904 17586 17584 1 
14905 17588 17587 1 
14906 17589 17587 1 
14907 17591 17590 1 
14908 17592 17590 1 
14909 17594 17593 1 
14910 17595 17593 1 
14911 17597 17596 1 
14912 17598 17596 1 
14913 17600 17599 1 
14914 17601 17599 1 
14915 17603 17602 1 
14916 17604 17602 1 
14917 17605 17607 1 
14918 17606 17605 1 
14919 17608 17610 1 
14920 17609 17608 1 
14921 17612 17611 1 
14922 17613 17611 1 
14923 17615 17614 1 
14924 17616 17614 1 
14925 17618 17617 1 
14926 17619 17617 1 
14927 17621 17620 1 
14928 17622 17620 1 
14929 17624 17623 1 
14930 17625 17623 1 
14931 17626 17627 1 
14932 17626 17628 1 
14933 17630 17629 1 
14934 17631 17629 1 
14935 17633 17632 1 
14936 17634 17632 1 
14937 17636 17635 1 
14938 17637 17635 1 
14939 17639 17638 1 
14940 17640 17638 1 
14941 17642 17641 1 
14942 17643 17641 1 
14943 17645 17644 1 
14944 17646 17644 1 
14945 17648 17647 1 
14946 17649 17647 1 
14947 17650 17652 1 
14948 17651 17650 1 
14949 17654 17653 1 
14950 17655 17653 1 
14951 17657 17656 1 
14952 17658 17656 1 
14953 17660 17659 1 
14954 17661 17659 1 
14955 17663 17662 1 
14956 17664 17662 1 
14957 17666 17665 1 
14958 17667 17665 1 
14959 17669 17668 1 
14960 17670 17668 1 
14961 17672 17671 1 
14962 17673 17671 1 
14963 17675 17674 1 
14964 17676 17674 1 
14965 17678 17677 1 
14966 17679 17677 1 
14967 17681 17680 1 
14968 17682 17680 1 
14969 17684 17683 1 
14970 17685 17683 1 
14971 17687 17686 1 
14972 17688 17686 1 
14973 17690 17689 1 
14974 17691 17689 1 
14975 17693 17692 1 
14976 17694 17692 1 
14977 17696 17695 1 
14978 17697 17695 1 
14979 17699 17698 1 
14980 17700 17698 1 
14981 17701 17703 1 
14982 17702 17701 1 
14983 17705 17704 1 
14984 17706 17704 1 
14985 17708 17707 1 
14986 17709 17707 1 
14987 17711 17710 1 
14988 17712 17710 1 
14989 17713 17715 1 
14990 17714 17713 1 
14991 17717 17716 1 
14992 17718 17716 1 
14993 17720 17719 1 
14994 17721 17719 1 
14995 17723 17722 1 
14996 17724 17722 1 
14997 17726 17725 1 
14998 17727 17725 1 
14999 17729 17728 1 
15000 17730 17728 1 
15001 17732 17731 1 
15002 17733 17731 1 
15003 17735 17734 1 
15004 17736 17734 1 
15005 17737 17738 1 
15006 17737 17739 1 
15007 17741 17740 1 
15008 17742 17740 1 
15009 17744 17743 1 
15010 17745 17743 1 
15011 17746 17747 1 
15012 17746 17748 1 
15013 17750 17749 1 
15014 17751 17749 1 
15015 17752 17754 1 
15016 17753 17752 1 
15017 17756 17755 1 
15018 17757 17755 1 
15019 17759 17758 1 
15020 17760 17758 1 
15021 17762 17761 1 
15022 17763 17761 1 
15023 17765 17764 1 
15024 17766 17764 1 
15025 17767 17768 1 
15026 17767 17769 1 
15027 17771 17770 1 
15028 17772 17770 1 
15029 17773 17774 1 
15030 17773 17775 1 
15031 17777 17776 1 
15032 17778 17776 1 
15033 17780 17779 1 
15034 17781 17779 1 
15035 17783 17782 1 
15036 17784 17782 1 
15037 17785 17786 1 
15038 17785 17787 1 
15039 17789 17788 1 
15040 17790 17788 1 
15041 17792 17791 1 
15042 17793 17791 1 
15043 17795 17794 1 
15044 17796 17794 1 
15045 17798 17797 1 
15046 17799 17797 1 
15047 17801 17800 1 
15048 17802 17800 1 
15049 17804 17803 1 
15050 17805 17803 1 
15051 17807 17806 1 
15052 17808 17806 1 
15053 17810 17809 1 
15054 17811 17809 1 
15055 17813 17812 1 
15056 17814 17812 1 
15057 17816 17815 1 
15058 17817 17815 1 
15059 17819 17818 1 
15060 17820 17818 1 
15061 17822 17821 1 
15062 17823 17821 1 
15063 17825 17824 1 
15064 17826 17824 1 
15065 17828 17827 1 
15066 17829 17827 1 
15067 17830 17831 1 
15068 17830 17832 1 
15069 17834 17833 1 
15070 17835 17833 1 
15071 17837 17836 1 
15072 17838 17836 1 
15073 17840 17839 1 
15074 17841 17839 1 
15075 17843 17842 1 
15076 17844 17842 1 
@<TRIPOS>SUBSTRUCTURE
1 NIL_1 1 RESIDUE 1 A NIL 1
2 NIL_2 43 RESIDUE 1 A NIL 1
3 NIL_3 85 RESIDUE 1 A NIL 1
4 NIL_4 100 RESIDUE 1 A NIL 1
5 NIL_5 115 RESIDUE 1 A NIL 1
6 NIL_6 125 RESIDUE 1 A NIL 1
7 NIL_7 140 RESIDUE 1 A NIL 1
8 NIL_8 155 RESIDUE 1 A NIL 1
9 NIL_9 171 RESIDUE 1 A NIL 1
10 NIL_10 181 RESIDUE 1 A NIL 1
11 NIL_11 197 RESIDUE 1 A NIL 1
12 NIL_12 202 RESIDUE 1 A NIL 1
13 NIL_13 217 RESIDUE 1 A NIL 1
14 NIL_14 227 RESIDUE 1 A NIL 1
15 NIL_15 242 RESIDUE 1 A NIL 1
16 NIL_16 257 RESIDUE 1 A NIL 1
17 NIL_17 267 RESIDUE 1 A NIL 1
18 NIL_18 282 RESIDUE 1 A NIL 1
19 NIL_19 297 RESIDUE 1 A NIL 1
20 NIL_20 307 RESIDUE 1 A NIL 1
21 NIL_21 322 RESIDUE 1 A NIL 1
22 NIL_22 364 RESIDUE 1 A NIL 1
23 NIL_23 378 RESIDUE 1 A NIL 1
24 NIL_24 393 RESIDUE 1 A NIL 1
25 NIL_25 409 RESIDUE 1 A NIL 1
26 NIL_26 423 RESIDUE 1 A NIL 1
27 NIL_27 438 RESIDUE 1 A NIL 1
28 NIL_28 453 RESIDUE 1 A NIL 1
29 NIL_29 468 RESIDUE 1 A NIL 1
30 NIL_30 478 RESIDUE 1 A NIL 1
31 NIL_31 493 RESIDUE 1 A NIL 1
32 NIL_32 498 RESIDUE 1 A NIL 1
33 NIL_33 513 RESIDUE 1 A NIL 1
34 NIL_34 520 RESIDUE 1 A NIL 1
35 NIL_35 535 RESIDUE 1 A NIL 1
36 NIL_36 550 RESIDUE 1 A NIL 1
37 NIL_37 560 RESIDUE 1 A NIL 1
38 NIL_38 574 RESIDUE 1 A NIL 1
39 NIL_39 584 RESIDUE 1 A NIL 1
40 NIL_40 594 RESIDUE 1 A NIL 1
41 NIL_41 604 RESIDUE 1 A NIL 1
42 NIL_42 614 RESIDUE 1 A NIL 1
43 NIL_43 621 RESIDUE 1 A NIL 1
44 NIL_44 631 RESIDUE 1 A NIL 1
45 NIL_45 636 RESIDUE 1 A NIL 1
46 NIL_46 643 RESIDUE 1 B NIL 1
47 NIL_47 685 RESIDUE 1 B NIL 1
48 NIL_48 727 RESIDUE 1 B NIL 1
49 NIL_49 742 RESIDUE 1 B NIL 1
50 NIL_50 757 RESIDUE 1 B NIL 1
51 NIL_51 767 RESIDUE 1 B NIL 1
52 NIL_52 782 RESIDUE 1 B NIL 1
53 NIL_53 797 RESIDUE 1 B NIL 1
54 NIL_54 813 RESIDUE 1 B NIL 1
55 NIL_55 823 RESIDUE 1 B NIL 1
56 NIL_56 839 RESIDUE 1 B NIL 1
57 NIL_57 844 RESIDUE 1 B NIL 1
58 NIL_58 859 RESIDUE 1 B NIL 1
59 NIL_59 869 RESIDUE 1 B NIL 1
60 NIL_60 884 RESIDUE 1 B NIL 1
61 NIL_61 899 RESIDUE 1 B NIL 1
62 NIL_62 909 RESIDUE 1 B NIL 1
63 NIL_63 924 RESIDUE 1 B NIL 1
64 NIL_64 939 RESIDUE 1 B NIL 1
65 NIL_65 949 RESIDUE 1 B NIL 1
66 NIL_66 964 RESIDUE 1 B NIL 1
67 NIL_67 1006 RESIDUE 1 B NIL 1
68 NIL_68 1020 RESIDUE 1 B NIL 1
69 NIL_69 1035 RESIDUE 1 B NIL 1
70 NIL_70 1051 RESIDUE 1 B NIL 1
71 NIL_71 1065 RESIDUE 1 B NIL 1
72 NIL_72 1080 RESIDUE 1 B NIL 1
73 NIL_73 1095 RESIDUE 1 B NIL 1
74 NIL_74 1110 RESIDUE 1 B NIL 1
75 NIL_75 1120 RESIDUE 1 B NIL 1
76 NIL_76 1135 RESIDUE 1 B NIL 1
77 NIL_77 1140 RESIDUE 1 B NIL 1
78 NIL_78 1155 RESIDUE 1 B NIL 1
79 NIL_79 1162 RESIDUE 1 B NIL 1
80 NIL_80 1177 RESIDUE 1 B NIL 1
81 NIL_81 1192 RESIDUE 1 B NIL 1
82 NIL_82 1202 RESIDUE 1 B NIL 1
83 NIL_83 1216 RESIDUE 1 B NIL 1
84 NIL_84 1226 RESIDUE 1 B NIL 1
85 NIL_85 1236 RESIDUE 1 B NIL 1
86 NIL_86 1246 RESIDUE 1 B NIL 1
87 NIL_87 1256 RESIDUE 1 B NIL 1
88 NIL_88 1263 RESIDUE 1 B NIL 1
89 NIL_89 1273 RESIDUE 1 B NIL 1
90 NIL_90 1278 RESIDUE 1 B NIL 1
91 NIL_91 1285 RESIDUE 1 C NIL 1
92 NIL_92 1327 RESIDUE 1 C NIL 1
93 NIL_93 1369 RESIDUE 1 C NIL 1
94 NIL_94 1384 RESIDUE 1 C NIL 1
95 NIL_95 1399 RESIDUE 1 C NIL 1
96 NIL_96 1409 RESIDUE 1 C NIL 1
97 NIL_97 1424 RESIDUE 1 C NIL 1
98 NIL_98 1439 RESIDUE 1 C NIL 1
99 NIL_99 1455 RESIDUE 1 C NIL 1
100 NIL_100 1465 RESIDUE 1 C NIL 1
101 NIL_101 1481 RESIDUE 1 C NIL 1
102 NIL_102 1486 RESIDUE 1 C NIL 1
103 NIL_103 1501 RESIDUE 1 C NIL 1
104 NIL_104 1511 RESIDUE 1 C NIL 1
105 NIL_105 1526 RESIDUE 1 C NIL 1
106 NIL_106 1541 RESIDUE 1 C NIL 1
107 NIL_107 1551 RESIDUE 1 C NIL 1
108 NIL_108 1566 RESIDUE 1 C NIL 1
109 NIL_109 1581 RESIDUE 1 C NIL 1
110 NIL_110 1591 RESIDUE 1 C NIL 1
111 NIL_111 1606 RESIDUE 1 C NIL 1
112 NIL_112 1648 RESIDUE 1 C NIL 1
113 NIL_113 1662 RESIDUE 1 C NIL 1
114 NIL_114 1677 RESIDUE 1 C NIL 1
115 NIL_115 1693 RESIDUE 1 C NIL 1
116 NIL_116 1707 RESIDUE 1 C NIL 1
117 NIL_117 1722 RESIDUE 1 C NIL 1
118 NIL_118 1737 RESIDUE 1 C NIL 1
119 NIL_119 1752 RESIDUE 1 C NIL 1
120 NIL_120 1762 RESIDUE 1 C NIL 1
121 NIL_121 1777 RESIDUE 1 C NIL 1
122 NIL_122 1782 RESIDUE 1 C NIL 1
123 NIL_123 1797 RESIDUE 1 C NIL 1
124 NIL_124 1804 RESIDUE 1 C NIL 1
125 NIL_125 1819 RESIDUE 1 C NIL 1
126 NIL_126 1834 RESIDUE 1 C NIL 1
127 NIL_127 1844 RESIDUE 1 C NIL 1
128 NIL_128 1858 RESIDUE 1 C NIL 1
129 NIL_129 1868 RESIDUE 1 C NIL 1
130 NIL_130 1878 RESIDUE 1 C NIL 1
131 NIL_131 1888 RESIDUE 1 C NIL 1
132 NIL_132 1898 RESIDUE 1 C NIL 1
133 NIL_133 1905 RESIDUE 1 C NIL 1
134 NIL_134 1915 RESIDUE 1 C NIL 1
135 NIL_135 1920 RESIDUE 1 C NIL 1
136 NIL_136 1927 RESIDUE 1 D NIL 1
137 NIL_137 1969 RESIDUE 1 D NIL 1
138 NIL_138 2011 RESIDUE 1 D NIL 1
139 NIL_139 2026 RESIDUE 1 D NIL 1
140 NIL_140 2041 RESIDUE 1 D NIL 1
141 NIL_141 2051 RESIDUE 1 D NIL 1
142 NIL_142 2066 RESIDUE 1 D NIL 1
143 NIL_143 2081 RESIDUE 1 D NIL 1
144 NIL_144 2097 RESIDUE 1 D NIL 1
145 NIL_145 2107 RESIDUE 1 D NIL 1
146 NIL_146 2123 RESIDUE 1 D NIL 1
147 NIL_147 2128 RESIDUE 1 D NIL 1
148 NIL_148 2143 RESIDUE 1 D NIL 1
149 NIL_149 2153 RESIDUE 1 D NIL 1
150 NIL_150 2168 RESIDUE 1 D NIL 1
151 NIL_151 2183 RESIDUE 1 D NIL 1
152 NIL_152 2193 RESIDUE 1 D NIL 1
153 NIL_153 2208 RESIDUE 1 D NIL 1
154 NIL_154 2223 RESIDUE 1 D NIL 1
155 NIL_155 2233 RESIDUE 1 D NIL 1
156 NIL_156 2248 RESIDUE 1 D NIL 1
157 NIL_157 2290 RESIDUE 1 D NIL 1
158 NIL_158 2304 RESIDUE 1 D NIL 1
159 NIL_159 2319 RESIDUE 1 D NIL 1
160 NIL_160 2335 RESIDUE 1 D NIL 1
161 NIL_161 2349 RESIDUE 1 D NIL 1
162 NIL_162 2364 RESIDUE 1 D NIL 1
163 NIL_163 2379 RESIDUE 1 D NIL 1
164 NIL_164 2394 RESIDUE 1 D NIL 1
165 NIL_165 2404 RESIDUE 1 D NIL 1
166 NIL_166 2419 RESIDUE 1 D NIL 1
167 NIL_167 2424 RESIDUE 1 D NIL 1
168 NIL_168 2439 RESIDUE 1 D NIL 1
169 NIL_169 2446 RESIDUE 1 D NIL 1
170 NIL_170 2461 RESIDUE 1 D NIL 1
171 NIL_171 2476 RESIDUE 1 D NIL 1
172 NIL_172 2486 RESIDUE 1 D NIL 1
173 NIL_173 2500 RESIDUE 1 D NIL 1
174 NIL_174 2510 RESIDUE 1 D NIL 1
175 NIL_175 2520 RESIDUE 1 D NIL 1
176 NIL_176 2530 RESIDUE 1 D NIL 1
177 NIL_177 2540 RESIDUE 1 D NIL 1
178 NIL_178 2547 RESIDUE 1 D NIL 1
179 NIL_179 2557 RESIDUE 1 D NIL 1
180 NIL_180 2562 RESIDUE 1 D NIL 1
181 NIL_181 2569 RESIDUE 1 E NIL 1
182 NIL_182 2611 RESIDUE 1 E NIL 1
183 NIL_183 2653 RESIDUE 1 E NIL 1
184 NIL_184 2668 RESIDUE 1 E NIL 1
185 NIL_185 2683 RESIDUE 1 E NIL 1
186 NIL_186 2693 RESIDUE 1 E NIL 1
187 NIL_187 2708 RESIDUE 1 E NIL 1
188 NIL_188 2723 RESIDUE 1 E NIL 1
189 NIL_189 2739 RESIDUE 1 E NIL 1
190 NIL_190 2749 RESIDUE 1 E NIL 1
191 NIL_191 2765 RESIDUE 1 E NIL 1
192 NIL_192 2770 RESIDUE 1 E NIL 1
193 NIL_193 2785 RESIDUE 1 E NIL 1
194 NIL_194 2795 RESIDUE 1 E NIL 1
195 NIL_195 2810 RESIDUE 1 E NIL 1
196 NIL_196 2825 RESIDUE 1 E NIL 1
197 NIL_197 2835 RESIDUE 1 E NIL 1
198 NIL_198 2850 RESIDUE 1 E NIL 1
199 NIL_199 2865 RESIDUE 1 E NIL 1
200 NIL_200 2875 RESIDUE 1 E NIL 1
201 NIL_201 2890 RESIDUE 1 E NIL 1
202 NIL_202 2932 RESIDUE 1 E NIL 1
203 NIL_203 2946 RESIDUE 1 E NIL 1
204 NIL_204 2961 RESIDUE 1 E NIL 1
205 NIL_205 2977 RESIDUE 1 E NIL 1
206 NIL_206 2991 RESIDUE 1 E NIL 1
207 NIL_207 3006 RESIDUE 1 E NIL 1
208 NIL_208 3021 RESIDUE 1 E NIL 1
209 NIL_209 3036 RESIDUE 1 E NIL 1
210 NIL_210 3046 RESIDUE 1 E NIL 1
211 NIL_211 3061 RESIDUE 1 E NIL 1
212 NIL_212 3066 RESIDUE 1 E NIL 1
213 NIL_213 3081 RESIDUE 1 E NIL 1
214 NIL_214 3088 RESIDUE 1 E NIL 1
215 NIL_215 3103 RESIDUE 1 E NIL 1
216 NIL_216 3118 RESIDUE 1 E NIL 1
217 NIL_217 3128 RESIDUE 1 E NIL 1
218 NIL_218 3142 RESIDUE 1 E NIL 1
219 NIL_219 3152 RESIDUE 1 E NIL 1
220 NIL_220 3162 RESIDUE 1 E NIL 1
221 NIL_221 3172 RESIDUE 1 E NIL 1
222 NIL_222 3182 RESIDUE 1 E NIL 1
223 NIL_223 3189 RESIDUE 1 E NIL 1
224 NIL_224 3199 RESIDUE 1 E NIL 1
225 NIL_225 3204 RESIDUE 1 E NIL 1
226 NIL_226 3211 RESIDUE 1 F NIL 1
227 NIL_227 3253 RESIDUE 1 F NIL 1
228 NIL_228 3295 RESIDUE 1 F NIL 1
229 NIL_229 3310 RESIDUE 1 F NIL 1
230 NIL_230 3325 RESIDUE 1 F NIL 1
231 NIL_231 3335 RESIDUE 1 F NIL 1
232 NIL_232 3350 RESIDUE 1 F NIL 1
233 NIL_233 3365 RESIDUE 1 F NIL 1
234 NIL_234 3381 RESIDUE 1 F NIL 1
235 NIL_235 3391 RESIDUE 1 F NIL 1
236 NIL_236 3407 RESIDUE 1 F NIL 1
237 NIL_237 3412 RESIDUE 1 F NIL 1
238 NIL_238 3427 RESIDUE 1 F NIL 1
239 NIL_239 3437 RESIDUE 1 F NIL 1
240 NIL_240 3452 RESIDUE 1 F NIL 1
241 NIL_241 3467 RESIDUE 1 F NIL 1
242 NIL_242 3477 RESIDUE 1 F NIL 1
243 NIL_243 3492 RESIDUE 1 F NIL 1
244 NIL_244 3507 RESIDUE 1 F NIL 1
245 NIL_245 3517 RESIDUE 1 F NIL 1
246 NIL_246 3532 RESIDUE 1 F NIL 1
247 NIL_247 3574 RESIDUE 1 F NIL 1
248 NIL_248 3588 RESIDUE 1 F NIL 1
249 NIL_249 3603 RESIDUE 1 F NIL 1
250 NIL_250 3619 RESIDUE 1 F NIL 1
251 NIL_251 3633 RESIDUE 1 F NIL 1
252 NIL_252 3648 RESIDUE 1 F NIL 1
253 NIL_253 3663 RESIDUE 1 F NIL 1
254 NIL_254 3678 RESIDUE 1 F NIL 1
255 NIL_255 3688 RESIDUE 1 F NIL 1
256 NIL_256 3703 RESIDUE 1 F NIL 1
257 NIL_257 3708 RESIDUE 1 F NIL 1
258 NIL_258 3723 RESIDUE 1 F NIL 1
259 NIL_259 3730 RESIDUE 1 F NIL 1
260 NIL_260 3745 RESIDUE 1 F NIL 1
261 NIL_261 3760 RESIDUE 1 F NIL 1
262 NIL_262 3770 RESIDUE 1 F NIL 1
263 NIL_263 3784 RESIDUE 1 F NIL 1
264 NIL_264 3794 RESIDUE 1 F NIL 1
265 NIL_265 3804 RESIDUE 1 F NIL 1
266 NIL_266 3814 RESIDUE 1 F NIL 1
267 NIL_267 3824 RESIDUE 1 F NIL 1
268 NIL_268 3831 RESIDUE 1 F NIL 1
269 NIL_269 3841 RESIDUE 1 F NIL 1
270 NIL_270 3846 RESIDUE 1 F NIL 1
271 NIL_271 3853 RESIDUE 1 G NIL 1
272 NIL_272 3895 RESIDUE 1 G NIL 1
273 NIL_273 3937 RESIDUE 1 G NIL 1
274 NIL_274 3952 RESIDUE 1 G NIL 1
275 NIL_275 3967 RESIDUE 1 G NIL 1
276 NIL_276 3977 RESIDUE 1 G NIL 1
277 NIL_277 3992 RESIDUE 1 G NIL 1
278 NIL_278 4007 RESIDUE 1 G NIL 1
279 NIL_279 4023 RESIDUE 1 G NIL 1
280 NIL_280 4033 RESIDUE 1 G NIL 1
281 NIL_281 4049 RESIDUE 1 G NIL 1
282 NIL_282 4054 RESIDUE 1 G NIL 1
283 NIL_283 4069 RESIDUE 1 G NIL 1
284 NIL_284 4079 RESIDUE 1 G NIL 1
285 NIL_285 4094 RESIDUE 1 G NIL 1
286 NIL_286 4109 RESIDUE 1 G NIL 1
287 NIL_287 4119 RESIDUE 1 G NIL 1
288 NIL_288 4134 RESIDUE 1 G NIL 1
289 NIL_289 4149 RESIDUE 1 G NIL 1
290 NIL_290 4159 RESIDUE 1 G NIL 1
291 NIL_291 4174 RESIDUE 1 G NIL 1
292 NIL_292 4216 RESIDUE 1 G NIL 1
293 NIL_293 4230 RESIDUE 1 G NIL 1
294 NIL_294 4245 RESIDUE 1 G NIL 1
295 NIL_295 4261 RESIDUE 1 G NIL 1
296 NIL_296 4275 RESIDUE 1 G NIL 1
297 NIL_297 4290 RESIDUE 1 G NIL 1
298 NIL_298 4305 RESIDUE 1 G NIL 1
299 NIL_299 4320 RESIDUE 1 G NIL 1
300 NIL_300 4330 RESIDUE 1 G NIL 1
301 NIL_301 4345 RESIDUE 1 G NIL 1
302 NIL_302 4350 RESIDUE 1 G NIL 1
303 NIL_303 4365 RESIDUE 1 G NIL 1
304 NIL_304 4372 RESIDUE 1 G NIL 1
305 NIL_305 4387 RESIDUE 1 G NIL 1
306 NIL_306 4402 RESIDUE 1 G NIL 1
307 NIL_307 4412 RESIDUE 1 G NIL 1
308 NIL_308 4426 RESIDUE 1 G NIL 1
309 NIL_309 4436 RESIDUE 1 G NIL 1
310 NIL_310 4446 RESIDUE 1 G NIL 1
311 NIL_311 4456 RESIDUE 1 G NIL 1
312 NIL_312 4466 RESIDUE 1 G NIL 1
313 NIL_313 4473 RESIDUE 1 G NIL 1
314 NIL_314 4483 RESIDUE 1 G NIL 1
315 NIL_315 4488 RESIDUE 1 G NIL 1
316 NIL_316 4495 RESIDUE 1 H NIL 1
317 NIL_317 4537 RESIDUE 1 H NIL 1
318 NIL_318 4579 RESIDUE 1 H NIL 1
319 NIL_319 4594 RESIDUE 1 H NIL 1
320 NIL_320 4609 RESIDUE 1 H NIL 1
321 NIL_321 4619 RESIDUE 1 H NIL 1
322 NIL_322 4634 RESIDUE 1 H NIL 1
323 NIL_323 4649 RESIDUE 1 H NIL 1
324 NIL_324 4665 RESIDUE 1 H NIL 1
325 NIL_325 4675 RESIDUE 1 H NIL 1
326 NIL_326 4691 RESIDUE 1 H NIL 1
327 NIL_327 4696 RESIDUE 1 H NIL 1
328 NIL_328 4711 RESIDUE 1 H NIL 1
329 NIL_329 4721 RESIDUE 1 H NIL 1
330 NIL_330 4736 RESIDUE 1 H NIL 1
331 NIL_331 4751 RESIDUE 1 H NIL 1
332 NIL_332 4761 RESIDUE 1 H NIL 1
333 NIL_333 4776 RESIDUE 1 H NIL 1
334 NIL_334 4791 RESIDUE 1 H NIL 1
335 NIL_335 4801 RESIDUE 1 H NIL 1
336 NIL_336 4816 RESIDUE 1 H NIL 1
337 NIL_337 4858 RESIDUE 1 H NIL 1
338 NIL_338 4872 RESIDUE 1 H NIL 1
339 NIL_339 4887 RESIDUE 1 H NIL 1
340 NIL_340 4903 RESIDUE 1 H NIL 1
341 NIL_341 4917 RESIDUE 1 H NIL 1
342 NIL_342 4932 RESIDUE 1 H NIL 1
343 NIL_343 4947 RESIDUE 1 H NIL 1
344 NIL_344 4962 RESIDUE 1 H NIL 1
345 NIL_345 4972 RESIDUE 1 H NIL 1
346 NIL_346 4987 RESIDUE 1 H NIL 1
347 NIL_347 4992 RESIDUE 1 H NIL 1
348 NIL_348 5007 RESIDUE 1 H NIL 1
349 NIL_349 5014 RESIDUE 1 H NIL 1
350 NIL_350 5029 RESIDUE 1 H NIL 1
351 NIL_351 5044 RESIDUE 1 H NIL 1
352 NIL_352 5054 RESIDUE 1 H NIL 1
353 NIL_353 5068 RESIDUE 1 H NIL 1
354 NIL_354 5078 RESIDUE 1 H NIL 1
355 NIL_355 5088 RESIDUE 1 H NIL 1
356 NIL_356 5098 RESIDUE 1 H NIL 1
357 NIL_357 5108 RESIDUE 1 H NIL 1
358 NIL_358 5115 RESIDUE 1 H NIL 1
359 NIL_359 5125 RESIDUE 1 H NIL 1
360 NIL_360 5130 RESIDUE 1 H NIL 1
361 NIL_361 5137 RESIDUE 1 I NIL 1
362 NIL_362 5179 RESIDUE 1 I NIL 1
363 NIL_363 5221 RESIDUE 1 I NIL 1
364 NIL_364 5236 RESIDUE 1 I NIL 1
365 NIL_365 5251 RESIDUE 1 I NIL 1
366 NIL_366 5261 RESIDUE 1 I NIL 1
367 NIL_367 5276 RESIDUE 1 I NIL 1
368 NIL_368 5291 RESIDUE 1 I NIL 1
369 NIL_369 5307 RESIDUE 1 I NIL 1
370 NIL_370 5317 RESIDUE 1 I NIL 1
371 NIL_371 5333 RESIDUE 1 I NIL 1
372 NIL_372 5338 RESIDUE 1 I NIL 1
373 NIL_373 5353 RESIDUE 1 I NIL 1
374 NIL_374 5363 RESIDUE 1 I NIL 1
375 NIL_375 5378 RESIDUE 1 I NIL 1
376 NIL_376 5393 RESIDUE 1 I NIL 1
377 NIL_377 5403 RESIDUE 1 I NIL 1
378 NIL_378 5418 RESIDUE 1 I NIL 1
379 NIL_379 5433 RESIDUE 1 I NIL 1
380 NIL_380 5443 RESIDUE 1 I NIL 1
381 NIL_381 5458 RESIDUE 1 I NIL 1
382 NIL_382 5500 RESIDUE 1 I NIL 1
383 NIL_383 5514 RESIDUE 1 I NIL 1
384 NIL_384 5529 RESIDUE 1 I NIL 1
385 NIL_385 5545 RESIDUE 1 I NIL 1
386 NIL_386 5559 RESIDUE 1 I NIL 1
387 NIL_387 5574 RESIDUE 1 I NIL 1
388 NIL_388 5589 RESIDUE 1 I NIL 1
389 NIL_389 5604 RESIDUE 1 I NIL 1
390 NIL_390 5614 RESIDUE 1 I NIL 1
391 NIL_391 5629 RESIDUE 1 I NIL 1
392 NIL_392 5634 RESIDUE 1 I NIL 1
393 NIL_393 5649 RESIDUE 1 I NIL 1
394 NIL_394 5656 RESIDUE 1 I NIL 1
395 NIL_395 5671 RESIDUE 1 I NIL 1
396 NIL_396 5686 RESIDUE 1 I NIL 1
397 NIL_397 5696 RESIDUE 1 I NIL 1
398 NIL_398 5710 RESIDUE 1 I NIL 1
399 NIL_399 5720 RESIDUE 1 I NIL 1
400 NIL_400 5730 RESIDUE 1 I NIL 1
401 NIL_401 5740 RESIDUE 1 I NIL 1
402 NIL_402 5750 RESIDUE 1 I NIL 1
403 NIL_403 5757 RESIDUE 1 I NIL 1
404 NIL_404 5767 RESIDUE 1 I NIL 1
405 NIL_405 5772 RESIDUE 1 I NIL 1
406 NIL_406 5779 RESIDUE 1 J NIL 1
407 NIL_407 5821 RESIDUE 1 J NIL 1
408 NIL_408 5863 RESIDUE 1 J NIL 1
409 NIL_409 5878 RESIDUE 1 J NIL 1
410 NIL_410 5893 RESIDUE 1 J NIL 1
411 NIL_411 5903 RESIDUE 1 J NIL 1
412 NIL_412 5918 RESIDUE 1 J NIL 1
413 NIL_413 5933 RESIDUE 1 J NIL 1
414 NIL_414 5949 RESIDUE 1 J NIL 1
415 NIL_415 5959 RESIDUE 1 J NIL 1
416 NIL_416 5975 RESIDUE 1 J NIL 1
417 NIL_417 5980 RESIDUE 1 J NIL 1
418 NIL_418 5995 RESIDUE 1 J NIL 1
419 NIL_419 6005 RESIDUE 1 J NIL 1
420 NIL_420 6020 RESIDUE 1 J NIL 1
421 NIL_421 6035 RESIDUE 1 J NIL 1
422 NIL_422 6045 RESIDUE 1 J NIL 1
423 NIL_423 6060 RESIDUE 1 J NIL 1
424 NIL_424 6075 RESIDUE 1 J NIL 1
425 NIL_425 6085 RESIDUE 1 J NIL 1
426 NIL_426 6100 RESIDUE 1 J NIL 1
427 NIL_427 6142 RESIDUE 1 J NIL 1
428 NIL_428 6156 RESIDUE 1 J NIL 1
429 NIL_429 6171 RESIDUE 1 J NIL 1
430 NIL_430 6187 RESIDUE 1 J NIL 1
431 NIL_431 6201 RESIDUE 1 J NIL 1
432 NIL_432 6216 RESIDUE 1 J NIL 1
433 NIL_433 6231 RESIDUE 1 J NIL 1
434 NIL_434 6246 RESIDUE 1 J NIL 1
435 NIL_435 6256 RESIDUE 1 J NIL 1
436 NIL_436 6271 RESIDUE 1 J NIL 1
437 NIL_437 6276 RESIDUE 1 J NIL 1
438 NIL_438 6291 RESIDUE 1 J NIL 1
439 NIL_439 6298 RESIDUE 1 J NIL 1
440 NIL_440 6313 RESIDUE 1 J NIL 1
441 NIL_441 6328 RESIDUE 1 J NIL 1
442 NIL_442 6338 RESIDUE 1 J NIL 1
443 NIL_443 6352 RESIDUE 1 J NIL 1
444 NIL_444 6362 RESIDUE 1 J NIL 1
445 NIL_445 6372 RESIDUE 1 J NIL 1
446 NIL_446 6382 RESIDUE 1 J NIL 1
447 NIL_447 6392 RESIDUE 1 J NIL 1
448 NIL_448 6399 RESIDUE 1 J NIL 1
449 NIL_449 6409 RESIDUE 1 J NIL 1
450 NIL_450 6414 RESIDUE 1 J NIL 1
451 NIL_451 6421 RESIDUE 1 K NIL 1
452 NIL_452 6463 RESIDUE 1 K NIL 1
453 NIL_453 6505 RESIDUE 1 K NIL 1
454 NIL_454 6520 RESIDUE 1 K NIL 1
455 NIL_455 6535 RESIDUE 1 K NIL 1
456 NIL_456 6545 RESIDUE 1 K NIL 1
457 NIL_457 6560 RESIDUE 1 K NIL 1
458 NIL_458 6575 RESIDUE 1 K NIL 1
459 NIL_459 6591 RESIDUE 1 K NIL 1
460 NIL_460 6601 RESIDUE 1 K NIL 1
461 NIL_461 6617 RESIDUE 1 K NIL 1
462 NIL_462 6622 RESIDUE 1 K NIL 1
463 NIL_463 6637 RESIDUE 1 K NIL 1
464 NIL_464 6647 RESIDUE 1 K NIL 1
465 NIL_465 6662 RESIDUE 1 K NIL 1
466 NIL_466 6677 RESIDUE 1 K NIL 1
467 NIL_467 6687 RESIDUE 1 K NIL 1
468 NIL_468 6702 RESIDUE 1 K NIL 1
469 NIL_469 6717 RESIDUE 1 K NIL 1
470 NIL_470 6727 RESIDUE 1 K NIL 1
471 NIL_471 6742 RESIDUE 1 K NIL 1
472 NIL_472 6784 RESIDUE 1 K NIL 1
473 NIL_473 6798 RESIDUE 1 K NIL 1
474 NIL_474 6813 RESIDUE 1 K NIL 1
475 NIL_475 6829 RESIDUE 1 K NIL 1
476 NIL_476 6843 RESIDUE 1 K NIL 1
477 NIL_477 6858 RESIDUE 1 K NIL 1
478 NIL_478 6873 RESIDUE 1 K NIL 1
479 NIL_479 6888 RESIDUE 1 K NIL 1
480 NIL_480 6898 RESIDUE 1 K NIL 1
481 NIL_481 6913 RESIDUE 1 K NIL 1
482 NIL_482 6918 RESIDUE 1 K NIL 1
483 NIL_483 6933 RESIDUE 1 K NIL 1
484 NIL_484 6940 RESIDUE 1 K NIL 1
485 NIL_485 6955 RESIDUE 1 K NIL 1
486 NIL_486 6970 RESIDUE 1 K NIL 1
487 NIL_487 6980 RESIDUE 1 K NIL 1
488 NIL_488 6994 RESIDUE 1 K NIL 1
489 NIL_489 7004 RESIDUE 1 K NIL 1
490 NIL_490 7014 RESIDUE 1 K NIL 1
491 NIL_491 7024 RESIDUE 1 K NIL 1
492 NIL_492 7034 RESIDUE 1 K NIL 1
493 NIL_493 7041 RESIDUE 1 K NIL 1
494 NIL_494 7051 RESIDUE 1 K NIL 1
495 NIL_495 7056 RESIDUE 1 K NIL 1
496 NIL_496 7063 RESIDUE 1 L NIL 1
497 NIL_497 7105 RESIDUE 1 L NIL 1
498 NIL_498 7147 RESIDUE 1 L NIL 1
499 NIL_499 7162 RESIDUE 1 L NIL 1
500 NIL_500 7177 RESIDUE 1 L NIL 1
501 NIL_501 7187 RESIDUE 1 L NIL 1
502 NIL_502 7202 RESIDUE 1 L NIL 1
503 NIL_503 7217 RESIDUE 1 L NIL 1
504 NIL_504 7233 RESIDUE 1 L NIL 1
505 NIL_505 7243 RESIDUE 1 L NIL 1
506 NIL_506 7259 RESIDUE 1 L NIL 1
507 NIL_507 7264 RESIDUE 1 L NIL 1
508 NIL_508 7279 RESIDUE 1 L NIL 1
509 NIL_509 7289 RESIDUE 1 L NIL 1
510 NIL_510 7304 RESIDUE 1 L NIL 1
511 NIL_511 7319 RESIDUE 1 L NIL 1
512 NIL_512 7329 RESIDUE 1 L NIL 1
513 NIL_513 7344 RESIDUE 1 L NIL 1
514 NIL_514 7359 RESIDUE 1 L NIL 1
515 NIL_515 7369 RESIDUE 1 L NIL 1
516 NIL_516 7384 RESIDUE 1 L NIL 1
517 NIL_517 7426 RESIDUE 1 L NIL 1
518 NIL_518 7440 RESIDUE 1 L NIL 1
519 NIL_519 7455 RESIDUE 1 L NIL 1
520 NIL_520 7471 RESIDUE 1 L NIL 1
521 NIL_521 7485 RESIDUE 1 L NIL 1
522 NIL_522 7500 RESIDUE 1 L NIL 1
523 NIL_523 7515 RESIDUE 1 L NIL 1
524 NIL_524 7530 RESIDUE 1 L NIL 1
525 NIL_525 7540 RESIDUE 1 L NIL 1
526 NIL_526 7555 RESIDUE 1 L NIL 1
527 NIL_527 7560 RESIDUE 1 L NIL 1
528 NIL_528 7575 RESIDUE 1 L NIL 1
529 NIL_529 7582 RESIDUE 1 L NIL 1
530 NIL_530 7597 RESIDUE 1 L NIL 1
531 NIL_531 7612 RESIDUE 1 L NIL 1
532 NIL_532 7622 RESIDUE 1 L NIL 1
533 NIL_533 7636 RESIDUE 1 L NIL 1
534 NIL_534 7646 RESIDUE 1 L NIL 1
535 NIL_535 7656 RESIDUE 1 L NIL 1
536 NIL_536 7666 RESIDUE 1 L NIL 1
537 NIL_537 7676 RESIDUE 1 L NIL 1
538 NIL_538 7683 RESIDUE 1 L NIL 1
539 NIL_539 7693 RESIDUE 1 L NIL 1
540 NIL_540 7698 RESIDUE 1 L NIL 1
541 TIP3_541 7705 RESIDUE 1 M TIP3 1
542 TIP3_542 7708 RESIDUE 1 N TIP3 1
543 TIP3_543 7711 RESIDUE 1 O TIP3 1
544 TIP3_544 7714 RESIDUE 1 P TIP3 1
545 TIP3_545 7717 RESIDUE 1 Q TIP3 1
546 TIP3_546 7720 RESIDUE 1 R TIP3 1
547 TIP3_547 7723 RESIDUE 1 S TIP3 1
548 TIP3_548 7726 RESIDUE 1 T TIP3 1
549 TIP3_549 7729 RESIDUE 1 U TIP3 1
550 TIP3_550 7732 RESIDUE 1 V TIP3 1
551 TIP3_551 7735 RESIDUE 1 W TIP3 1
552 TIP3_552 7738 RESIDUE 1 X TIP3 1
553 TIP3_553 7741 RESIDUE 1 Y TIP3 1
554 TIP3_554 7744 RESIDUE 1 Z TIP3 1
555 TIP3_555 7747 RESIDUE 1 A TIP3 1
556 TIP3_556 7750 RESIDUE 1 B TIP3 1
557 TIP3_557 7753 RESIDUE 1 C TIP3 1
558 TIP3_558 7756 RESIDUE 1 D TIP3 1
559 TIP3_559 7759 RESIDUE 1 E TIP3 1
560 TIP3_560 7762 RESIDUE 1 F TIP3 1
561 TIP3_561 7765 RESIDUE 1 G TIP3 1
562 TIP3_562 7768 RESIDUE 1 H TIP3 1
563 TIP3_563 7771 RESIDUE 1 I TIP3 1
564 TIP3_564 7774 RESIDUE 1 J TIP3 1
565 TIP3_565 7777 RESIDUE 1 K TIP3 1
566 TIP3_566 7780 RESIDUE 1 L TIP3 1
567 TIP3_567 7783 RESIDUE 1 M TIP3 1
568 TIP3_568 7786 RESIDUE 1 N TIP3 1
569 TIP3_569 7789 RESIDUE 1 O TIP3 1
570 TIP3_570 7792 RESIDUE 1 P TIP3 1
571 TIP3_571 7795 RESIDUE 1 Q TIP3 1
572 TIP3_572 7798 RESIDUE 1 R TIP3 1
573 TIP3_573 7801 RESIDUE 1 S TIP3 1
574 TIP3_574 7804 RESIDUE 1 T TIP3 1
575 TIP3_575 7807 RESIDUE 1 U TIP3 1
576 TIP3_576 7810 RESIDUE 1 V TIP3 1
577 TIP3_577 7813 RESIDUE 1 W TIP3 1
578 TIP3_578 7816 RESIDUE 1 X TIP3 1
579 TIP3_579 7819 RESIDUE 1 Y TIP3 1
580 TIP3_580 7822 RESIDUE 1 Z TIP3 1
581 TIP3_581 7825 RESIDUE 1 A TIP3 1
582 TIP3_582 7828 RESIDUE 1 B TIP3 1
583 TIP3_583 7831 RESIDUE 1 C TIP3 1
584 TIP3_584 7834 RESIDUE 1 D TIP3 1
585 TIP3_585 7837 RESIDUE 1 E TIP3 1
586 TIP3_586 7840 RESIDUE 1 F TIP3 1
587 TIP3_587 7843 RESIDUE 1 G TIP3 1
588 TIP3_588 7846 RESIDUE 1 H TIP3 1
589 TIP3_589 7849 RESIDUE 1 I TIP3 1
590 TIP3_590 7852 RESIDUE 1 J TIP3 1
591 TIP3_591 7855 RESIDUE 1 K TIP3 1
592 TIP3_592 7858 RESIDUE 1 L TIP3 1
593 TIP3_593 7861 RESIDUE 1 M TIP3 1
594 TIP3_594 7864 RESIDUE 1 N TIP3 1
595 TIP3_595 7867 RESIDUE 1 O TIP3 1
596 TIP3_596 7870 RESIDUE 1 P TIP3 1
597 TIP3_597 7873 RESIDUE 1 Q TIP3 1
598 TIP3_598 7876 RESIDUE 1 R TIP3 1
599 TIP3_599 7879 RESIDUE 1 S TIP3 1
600 TIP3_600 7882 RESIDUE 1 T TIP3 1
601 TIP3_601 7885 RESIDUE 1 U TIP3 1
602 TIP3_602 7888 RESIDUE 1 V TIP3 1
603 TIP3_603 7891 RESIDUE 1 W TIP3 1
604 TIP3_604 7894 RESIDUE 1 X TIP3 1
605 TIP3_605 7897 RESIDUE 1 Y TIP3 1
606 TIP3_606 7900 RESIDUE 1 Z TIP3 1
607 TIP3_607 7903 RESIDUE 1 A TIP3 1
608 TIP3_608 7906 RESIDUE 1 B TIP3 1
609 TIP3_609 7909 RESIDUE 1 C TIP3 1
610 TIP3_610 7912 RESIDUE 1 D TIP3 1
611 TIP3_611 7915 RESIDUE 1 E TIP3 1
612 TIP3_612 7918 RESIDUE 1 F TIP3 1
613 TIP3_613 7921 RESIDUE 1 G TIP3 1
614 TIP3_614 7924 RESIDUE 1 H TIP3 1
615 TIP3_615 7927 RESIDUE 1 I TIP3 1
616 TIP3_616 7930 RESIDUE 1 J TIP3 1
617 TIP3_617 7933 RESIDUE 1 K TIP3 1
618 TIP3_618 7936 RESIDUE 1 L TIP3 1
619 TIP3_619 7939 RESIDUE 1 M TIP3 1
620 TIP3_620 7942 RESIDUE 1 N TIP3 1
621 TIP3_621 7945 RESIDUE 1 O TIP3 1
622 TIP3_622 7948 RESIDUE 1 P TIP3 1
623 TIP3_623 7951 RESIDUE 1 Q TIP3 1
624 TIP3_624 7954 RESIDUE 1 R TIP3 1
625 TIP3_625 7957 RESIDUE 1 S TIP3 1
626 TIP3_626 7960 RESIDUE 1 T TIP3 1
627 TIP3_627 7963 RESIDUE 1 U TIP3 1
628 TIP3_628 7966 RESIDUE 1 V TIP3 1
629 TIP3_629 7969 RESIDUE 1 W TIP3 1
630 TIP3_630 7972 RESIDUE 1 X TIP3 1
631 TIP3_631 7975 RESIDUE 1 Y TIP3 1
632 TIP3_632 7978 RESIDUE 1 Z TIP3 1
633 TIP3_633 7981 RESIDUE 1 A TIP3 1
634 TIP3_634 7984 RESIDUE 1 B TIP3 1
635 TIP3_635 7987 RESIDUE 1 C TIP3 1
636 TIP3_636 7990 RESIDUE 1 D TIP3 1
637 TIP3_637 7993 RESIDUE 1 E TIP3 1
638 TIP3_638 7996 RESIDUE 1 F TIP3 1
639 TIP3_639 7999 RESIDUE 1 G TIP3 1
640 TIP3_640 8002 RESIDUE 1 H TIP3 1
641 TIP3_641 8005 RESIDUE 1 I TIP3 1
642 TIP3_642 8008 RESIDUE 1 J TIP3 1
643 TIP3_643 8011 RESIDUE 1 K TIP3 1
644 TIP3_644 8014 RESIDUE 1 L TIP3 1
645 TIP3_645 8017 RESIDUE 1 M TIP3 1
646 TIP3_646 8020 RESIDUE 1 N TIP3 1
647 TIP3_647 8023 RESIDUE 1 O TIP3 1
648 TIP3_648 8026 RESIDUE 1 P TIP3 1
649 TIP3_649 8029 RESIDUE 1 Q TIP3 1
650 TIP3_650 8032 RESIDUE 1 R TIP3 1
651 TIP3_651 8035 RESIDUE 1 S TIP3 1
652 TIP3_652 8038 RESIDUE 1 T TIP3 1
653 TIP3_653 8041 RESIDUE 1 U TIP3 1
654 TIP3_654 8044 RESIDUE 1 V TIP3 1
655 TIP3_655 8047 RESIDUE 1 W TIP3 1
656 TIP3_656 8050 RESIDUE 1 X TIP3 1
657 TIP3_657 8053 RESIDUE 1 Y TIP3 1
658 TIP3_658 8056 RESIDUE 1 Z TIP3 1
659 TIP3_659 8059 RESIDUE 1 A TIP3 1
660 TIP3_660 8062 RESIDUE 1 B TIP3 1
661 TIP3_661 8065 RESIDUE 1 C TIP3 1
662 TIP3_662 8068 RESIDUE 1 D TIP3 1
663 TIP3_663 8071 RESIDUE 1 E TIP3 1
664 TIP3_664 8074 RESIDUE 1 F TIP3 1
665 TIP3_665 8077 RESIDUE 1 G TIP3 1
666 TIP3_666 8080 RESIDUE 1 H TIP3 1
667 TIP3_667 8083 RESIDUE 1 I TIP3 1
668 TIP3_668 8086 RESIDUE 1 J TIP3 1
669 TIP3_669 8089 RESIDUE 1 K TIP3 1
670 TIP3_670 8092 RESIDUE 1 L TIP3 1
671 TIP3_671 8095 RESIDUE 1 M TIP3 1
672 TIP3_672 8098 RESIDUE 1 N TIP3 1
673 TIP3_673 8101 RESIDUE 1 O TIP3 1
674 TIP3_674 8104 RESIDUE 1 P TIP3 1
675 TIP3_675 8107 RESIDUE 1 Q TIP3 1
676 TIP3_676 8110 RESIDUE 1 R TIP3 1
677 TIP3_677 8113 RESIDUE 1 S TIP3 1
678 TIP3_678 8116 RESIDUE 1 T TIP3 1
679 TIP3_679 8119 RESIDUE 1 U TIP3 1
680 TIP3_680 8122 RESIDUE 1 V TIP3 1
681 TIP3_681 8125 RESIDUE 1 W TIP3 1
682 TIP3_682 8128 RESIDUE 1 X TIP3 1
683 TIP3_683 8131 RESIDUE 1 Y TIP3 1
684 TIP3_684 8134 RESIDUE 1 Z TIP3 1
685 TIP3_685 8137 RESIDUE 1 A TIP3 1
686 TIP3_686 8140 RESIDUE 1 B TIP3 1
687 TIP3_687 8143 RESIDUE 1 C TIP3 1
688 TIP3_688 8146 RESIDUE 1 D TIP3 1
689 TIP3_689 8149 RESIDUE 1 E TIP3 1
690 TIP3_690 8152 RESIDUE 1 F TIP3 1
691 TIP3_691 8155 RESIDUE 1 G TIP3 1
692 TIP3_692 8158 RESIDUE 1 H TIP3 1
693 TIP3_693 8161 RESIDUE 1 I TIP3 1
694 TIP3_694 8164 RESIDUE 1 J TIP3 1
695 TIP3_695 8167 RESIDUE 1 K TIP3 1
696 TIP3_696 8170 RESIDUE 1 L TIP3 1
697 TIP3_697 8173 RESIDUE 1 M TIP3 1
698 TIP3_698 8176 RESIDUE 1 N TIP3 1
699 TIP3_699 8179 RESIDUE 1 O TIP3 1
700 TIP3_700 8182 RESIDUE 1 P TIP3 1
701 TIP3_701 8185 RESIDUE 1 Q TIP3 1
702 TIP3_702 8188 RESIDUE 1 R TIP3 1
703 TIP3_703 8191 RESIDUE 1 S TIP3 1
704 TIP3_704 8194 RESIDUE 1 T TIP3 1
705 TIP3_705 8197 RESIDUE 1 U TIP3 1
706 TIP3_706 8200 RESIDUE 1 V TIP3 1
707 TIP3_707 8203 RESIDUE 1 W TIP3 1
708 TIP3_708 8206 RESIDUE 1 X TIP3 1
709 TIP3_709 8209 RESIDUE 1 Y TIP3 1
710 TIP3_710 8212 RESIDUE 1 Z TIP3 1
711 TIP3_711 8215 RESIDUE 1 A TIP3 1
712 TIP3_712 8218 RESIDUE 1 B TIP3 1
713 TIP3_713 8221 RESIDUE 1 C TIP3 1
714 TIP3_714 8224 RESIDUE 1 D TIP3 1
715 TIP3_715 8227 RESIDUE 1 E TIP3 1
716 TIP3_716 8230 RESIDUE 1 F TIP3 1
717 TIP3_717 8233 RESIDUE 1 G TIP3 1
718 TIP3_718 8236 RESIDUE 1 H TIP3 1
719 TIP3_719 8239 RESIDUE 1 I TIP3 1
720 TIP3_720 8242 RESIDUE 1 J TIP3 1
721 TIP3_721 8245 RESIDUE 1 K TIP3 1
722 TIP3_722 8248 RESIDUE 1 L TIP3 1
723 TIP3_723 8251 RESIDUE 1 M TIP3 1
724 TIP3_724 8254 RESIDUE 1 N TIP3 1
725 TIP3_725 8257 RESIDUE 1 O TIP3 1
726 TIP3_726 8260 RESIDUE 1 P TIP3 1
727 TIP3_727 8263 RESIDUE 1 Q TIP3 1
728 TIP3_728 8266 RESIDUE 1 R TIP3 1
729 TIP3_729 8269 RESIDUE 1 S TIP3 1
730 TIP3_730 8272 RESIDUE 1 T TIP3 1
731 TIP3_731 8275 RESIDUE 1 U TIP3 1
732 TIP3_732 8278 RESIDUE 1 V TIP3 1
733 TIP3_733 8281 RESIDUE 1 W TIP3 1
734 TIP3_734 8284 RESIDUE 1 X TIP3 1
735 TIP3_735 8287 RESIDUE 1 Y TIP3 1
736 TIP3_736 8290 RESIDUE 1 Z TIP3 1
737 TIP3_737 8293 RESIDUE 1 A TIP3 1
738 TIP3_738 8296 RESIDUE 1 B TIP3 1
739 TIP3_739 8299 RESIDUE 1 C TIP3 1
740 TIP3_740 8302 RESIDUE 1 D TIP3 1
741 TIP3_741 8305 RESIDUE 1 E TIP3 1
742 TIP3_742 8308 RESIDUE 1 F TIP3 1
743 TIP3_743 8311 RESIDUE 1 G TIP3 1
744 TIP3_744 8314 RESIDUE 1 H TIP3 1
745 TIP3_745 8317 RESIDUE 1 I TIP3 1
746 TIP3_746 8320 RESIDUE 1 J TIP3 1
747 TIP3_747 8323 RESIDUE 1 K TIP3 1
748 TIP3_748 8326 RESIDUE 1 L TIP3 1
749 TIP3_749 8329 RESIDUE 1 M TIP3 1
750 TIP3_750 8332 RESIDUE 1 N TIP3 1
751 TIP3_751 8335 RESIDUE 1 O TIP3 1
752 TIP3_752 8338 RESIDUE 1 P TIP3 1
753 TIP3_753 8341 RESIDUE 1 Q TIP3 1
754 TIP3_754 8344 RESIDUE 1 R TIP3 1
755 TIP3_755 8347 RESIDUE 1 S TIP3 1
756 TIP3_756 8350 RESIDUE 1 T TIP3 1
757 TIP3_757 8353 RESIDUE 1 U TIP3 1
758 TIP3_758 8356 RESIDUE 1 V TIP3 1
759 TIP3_759 8359 RESIDUE 1 W TIP3 1
760 TIP3_760 8362 RESIDUE 1 X TIP3 1
761 TIP3_761 8365 RESIDUE 1 Y TIP3 1
762 TIP3_762 8368 RESIDUE 1 Z TIP3 1
763 TIP3_763 8371 RESIDUE 1 A TIP3 1
764 TIP3_764 8374 RESIDUE 1 B TIP3 1
765 TIP3_765 8377 RESIDUE 1 C TIP3 1
766 TIP3_766 8380 RESIDUE 1 D TIP3 1
767 TIP3_767 8383 RESIDUE 1 E TIP3 1
768 TIP3_768 8386 RESIDUE 1 F TIP3 1
769 TIP3_769 8389 RESIDUE 1 G TIP3 1
770 TIP3_770 8392 RESIDUE 1 H TIP3 1
771 TIP3_771 8395 RESIDUE 1 I TIP3 1
772 TIP3_772 8398 RESIDUE 1 J TIP3 1
773 TIP3_773 8401 RESIDUE 1 K TIP3 1
774 TIP3_774 8404 RESIDUE 1 L TIP3 1
775 TIP3_775 8407 RESIDUE 1 M TIP3 1
776 TIP3_776 8410 RESIDUE 1 N TIP3 1
777 TIP3_777 8413 RESIDUE 1 O TIP3 1
778 TIP3_778 8416 RESIDUE 1 P TIP3 1
779 TIP3_779 8419 RESIDUE 1 Q TIP3 1
780 TIP3_780 8422 RESIDUE 1 R TIP3 1
781 TIP3_781 8425 RESIDUE 1 S TIP3 1
782 TIP3_782 8428 RESIDUE 1 T TIP3 1
783 TIP3_783 8431 RESIDUE 1 U TIP3 1
784 TIP3_784 8434 RESIDUE 1 V TIP3 1
785 TIP3_785 8437 RESIDUE 1 W TIP3 1
786 TIP3_786 8440 RESIDUE 1 X TIP3 1
787 TIP3_787 8443 RESIDUE 1 Y TIP3 1
788 TIP3_788 8446 RESIDUE 1 Z TIP3 1
789 TIP3_789 8449 RESIDUE 1 A TIP3 1
790 TIP3_790 8452 RESIDUE 1 B TIP3 1
791 TIP3_791 8455 RESIDUE 1 C TIP3 1
792 TIP3_792 8458 RESIDUE 1 D TIP3 1
793 TIP3_793 8461 RESIDUE 1 E TIP3 1
794 TIP3_794 8464 RESIDUE 1 F TIP3 1
795 TIP3_795 8467 RESIDUE 1 G TIP3 1
796 TIP3_796 8470 RESIDUE 1 H TIP3 1
797 TIP3_797 8473 RESIDUE 1 I TIP3 1
798 TIP3_798 8476 RESIDUE 1 J TIP3 1
799 TIP3_799 8479 RESIDUE 1 K TIP3 1
800 TIP3_800 8482 RESIDUE 1 L TIP3 1
801 TIP3_801 8485 RESIDUE 1 M TIP3 1
802 TIP3_802 8488 RESIDUE 1 N TIP3 1
803 TIP3_803 8491 RESIDUE 1 O TIP3 1
804 TIP3_804 8494 RESIDUE 1 P TIP3 1
805 TIP3_805 8497 RESIDUE 1 Q TIP3 1
806 TIP3_806 8500 RESIDUE 1 R TIP3 1
807 TIP3_807 8503 RESIDUE 1 S TIP3 1
808 TIP3_808 8506 RESIDUE 1 T TIP3 1
809 TIP3_809 8509 RESIDUE 1 U TIP3 1
810 TIP3_810 8512 RESIDUE 1 V TIP3 1
811 TIP3_811 8515 RESIDUE 1 W TIP3 1
812 TIP3_812 8518 RESIDUE 1 X TIP3 1
813 TIP3_813 8521 RESIDUE 1 Y TIP3 1
814 TIP3_814 8524 RESIDUE 1 Z TIP3 1
815 TIP3_815 8527 RESIDUE 1 A TIP3 1
816 TIP3_816 8530 RESIDUE 1 B TIP3 1
817 TIP3_817 8533 RESIDUE 1 C TIP3 1
818 TIP3_818 8536 RESIDUE 1 D TIP3 1
819 TIP3_819 8539 RESIDUE 1 E TIP3 1
820 TIP3_820 8542 RESIDUE 1 F TIP3 1
821 TIP3_821 8545 RESIDUE 1 G TIP3 1
822 TIP3_822 8548 RESIDUE 1 H TIP3 1
823 TIP3_823 8551 RESIDUE 1 I TIP3 1
824 TIP3_824 8554 RESIDUE 1 J TIP3 1
825 TIP3_825 8557 RESIDUE 1 K TIP3 1
826 TIP3_826 8560 RESIDUE 1 L TIP3 1
827 TIP3_827 8563 RESIDUE 1 M TIP3 1
828 TIP3_828 8566 RESIDUE 1 N TIP3 1
829 TIP3_829 8569 RESIDUE 1 O TIP3 1
830 TIP3_830 8572 RESIDUE 1 P TIP3 1
831 TIP3_831 8575 RESIDUE 1 Q TIP3 1
832 TIP3_832 8578 RESIDUE 1 R TIP3 1
833 TIP3_833 8581 RESIDUE 1 S TIP3 1
834 TIP3_834 8584 RESIDUE 1 T TIP3 1
835 TIP3_835 8587 RESIDUE 1 U TIP3 1
836 TIP3_836 8590 RESIDUE 1 V TIP3 1
837 TIP3_837 8593 RESIDUE 1 W TIP3 1
838 TIP3_838 8596 RESIDUE 1 X TIP3 1
839 TIP3_839 8599 RESIDUE 1 Y TIP3 1
840 TIP3_840 8602 RESIDUE 1 Z TIP3 1
841 TIP3_841 8605 RESIDUE 1 A TIP3 1
842 TIP3_842 8608 RESIDUE 1 B TIP3 1
843 TIP3_843 8611 RESIDUE 1 C TIP3 1
844 TIP3_844 8614 RESIDUE 1 D TIP3 1
845 TIP3_845 8617 RESIDUE 1 E TIP3 1
846 TIP3_846 8620 RESIDUE 1 F TIP3 1
847 TIP3_847 8623 RESIDUE 1 G TIP3 1
848 TIP3_848 8626 RESIDUE 1 H TIP3 1
849 TIP3_849 8629 RESIDUE 1 I TIP3 1
850 TIP3_850 8632 RESIDUE 1 J TIP3 1
851 TIP3_851 8635 RESIDUE 1 K TIP3 1
852 TIP3_852 8638 RESIDUE 1 L TIP3 1
853 TIP3_853 8641 RESIDUE 1 M TIP3 1
854 TIP3_854 8644 RESIDUE 1 N TIP3 1
855 TIP3_855 8647 RESIDUE 1 O TIP3 1
856 TIP3_856 8650 RESIDUE 1 P TIP3 1
857 TIP3_857 8653 RESIDUE 1 Q TIP3 1
858 TIP3_858 8656 RESIDUE 1 R TIP3 1
859 TIP3_859 8659 RESIDUE 1 S TIP3 1
860 TIP3_860 8662 RESIDUE 1 T TIP3 1
861 TIP3_861 8665 RESIDUE 1 U TIP3 1
862 TIP3_862 8668 RESIDUE 1 V TIP3 1
863 TIP3_863 8671 RESIDUE 1 W TIP3 1
864 TIP3_864 8674 RESIDUE 1 X TIP3 1
865 TIP3_865 8677 RESIDUE 1 Y TIP3 1
866 TIP3_866 8680 RESIDUE 1 Z TIP3 1
867 TIP3_867 8683 RESIDUE 1 A TIP3 1
868 TIP3_868 8686 RESIDUE 1 B TIP3 1
869 TIP3_869 8689 RESIDUE 1 C TIP3 1
870 TIP3_870 8692 RESIDUE 1 D TIP3 1
871 TIP3_871 8695 RESIDUE 1 E TIP3 1
872 TIP3_872 8698 RESIDUE 1 F TIP3 1
873 TIP3_873 8701 RESIDUE 1 G TIP3 1
874 TIP3_874 8704 RESIDUE 1 H TIP3 1
875 TIP3_875 8707 RESIDUE 1 I TIP3 1
876 TIP3_876 8710 RESIDUE 1 J TIP3 1
877 TIP3_877 8713 RESIDUE 1 K TIP3 1
878 TIP3_878 8716 RESIDUE 1 L TIP3 1
879 TIP3_879 8719 RESIDUE 1 M TIP3 1
880 TIP3_880 8722 RESIDUE 1 N TIP3 1
881 TIP3_881 8725 RESIDUE 1 O TIP3 1
882 TIP3_882 8728 RESIDUE 1 P TIP3 1
883 TIP3_883 8731 RESIDUE 1 Q TIP3 1
884 TIP3_884 8734 RESIDUE 1 R TIP3 1
885 TIP3_885 8737 RESIDUE 1 S TIP3 1
886 TIP3_886 8740 RESIDUE 1 T TIP3 1
887 TIP3_887 8743 RESIDUE 1 U TIP3 1
888 TIP3_888 8746 RESIDUE 1 V TIP3 1
889 TIP3_889 8749 RESIDUE 1 W TIP3 1
890 TIP3_890 8752 RESIDUE 1 X TIP3 1
891 TIP3_891 8755 RESIDUE 1 Y TIP3 1
892 TIP3_892 8758 RESIDUE 1 Z TIP3 1
893 TIP3_893 8761 RESIDUE 1 A TIP3 1
894 TIP3_894 8764 RESIDUE 1 B TIP3 1
895 TIP3_895 8767 RESIDUE 1 C TIP3 1
896 TIP3_896 8770 RESIDUE 1 D TIP3 1
897 TIP3_897 8773 RESIDUE 1 E TIP3 1
898 TIP3_898 8776 RESIDUE 1 F TIP3 1
899 TIP3_899 8779 RESIDUE 1 G TIP3 1
900 TIP3_900 8782 RESIDUE 1 H TIP3 1
901 TIP3_901 8785 RESIDUE 1 I TIP3 1
902 TIP3_902 8788 RESIDUE 1 J TIP3 1
903 TIP3_903 8791 RESIDUE 1 K TIP3 1
904 TIP3_904 8794 RESIDUE 1 L TIP3 1
905 TIP3_905 8797 RESIDUE 1 M TIP3 1
906 TIP3_906 8800 RESIDUE 1 N TIP3 1
907 TIP3_907 8803 RESIDUE 1 O TIP3 1
908 TIP3_908 8806 RESIDUE 1 P TIP3 1
909 TIP3_909 8809 RESIDUE 1 Q TIP3 1
910 TIP3_910 8812 RESIDUE 1 R TIP3 1
911 TIP3_911 8815 RESIDUE 1 S TIP3 1
912 TIP3_912 8818 RESIDUE 1 T TIP3 1
913 TIP3_913 8821 RESIDUE 1 U TIP3 1
914 TIP3_914 8824 RESIDUE 1 V TIP3 1
915 TIP3_915 8827 RESIDUE 1 W TIP3 1
916 TIP3_916 8830 RESIDUE 1 X TIP3 1
917 TIP3_917 8833 RESIDUE 1 Y TIP3 1
918 TIP3_918 8836 RESIDUE 1 Z TIP3 1
919 TIP3_919 8839 RESIDUE 1 A TIP3 1
920 TIP3_920 8842 RESIDUE 1 B TIP3 1
921 TIP3_921 8845 RESIDUE 1 C TIP3 1
922 TIP3_922 8848 RESIDUE 1 D TIP3 1
923 TIP3_923 8851 RESIDUE 1 E TIP3 1
924 TIP3_924 8854 RESIDUE 1 F TIP3 1
925 TIP3_925 8857 RESIDUE 1 G TIP3 1
926 TIP3_926 8860 RESIDUE 1 H TIP3 1
927 TIP3_927 8863 RESIDUE 1 I TIP3 1
928 TIP3_928 8866 RESIDUE 1 J TIP3 1
929 TIP3_929 8869 RESIDUE 1 K TIP3 1
930 TIP3_930 8872 RESIDUE 1 L TIP3 1
931 TIP3_931 8875 RESIDUE 1 M TIP3 1
932 TIP3_932 8878 RESIDUE 1 N TIP3 1
933 TIP3_933 8881 RESIDUE 1 O TIP3 1
934 TIP3_934 8884 RESIDUE 1 P TIP3 1
935 TIP3_935 8887 RESIDUE 1 Q TIP3 1
936 TIP3_936 8890 RESIDUE 1 R TIP3 1
937 TIP3_937 8893 RESIDUE 1 S TIP3 1
938 TIP3_938 8896 RESIDUE 1 T TIP3 1
939 TIP3_939 8899 RESIDUE 1 U TIP3 1
940 TIP3_940 8902 RESIDUE 1 V TIP3 1
941 TIP3_941 8905 RESIDUE 1 W TIP3 1
942 TIP3_942 8908 RESIDUE 1 X TIP3 1
943 TIP3_943 8911 RESIDUE 1 Y TIP3 1
944 TIP3_944 8914 RESIDUE 1 Z TIP3 1
945 TIP3_945 8917 RESIDUE 1 A TIP3 1
946 TIP3_946 8920 RESIDUE 1 B TIP3 1
947 TIP3_947 8923 RESIDUE 1 C TIP3 1
948 TIP3_948 8926 RESIDUE 1 D TIP3 1
949 TIP3_949 8929 RESIDUE 1 E TIP3 1
950 TIP3_950 8932 RESIDUE 1 F TIP3 1
951 TIP3_951 8935 RESIDUE 1 G TIP3 1
952 TIP3_952 8938 RESIDUE 1 H TIP3 1
953 TIP3_953 8941 RESIDUE 1 I TIP3 1
954 TIP3_954 8944 RESIDUE 1 J TIP3 1
955 TIP3_955 8947 RESIDUE 1 K TIP3 1
956 TIP3_956 8950 RESIDUE 1 L TIP3 1
957 TIP3_957 8953 RESIDUE 1 M TIP3 1
958 TIP3_958 8956 RESIDUE 1 N TIP3 1
959 TIP3_959 8959 RESIDUE 1 O TIP3 1
960 TIP3_960 8962 RESIDUE 1 P TIP3 1
961 TIP3_961 8965 RESIDUE 1 Q TIP3 1
962 TIP3_962 8968 RESIDUE 1 R TIP3 1
963 TIP3_963 8971 RESIDUE 1 S TIP3 1
964 TIP3_964 8974 RESIDUE 1 T TIP3 1
965 TIP3_965 8977 RESIDUE 1 U TIP3 1
966 TIP3_966 8980 RESIDUE 1 V TIP3 1
967 TIP3_967 8983 RESIDUE 1 W TIP3 1
968 TIP3_968 8986 RESIDUE 1 X TIP3 1
969 TIP3_969 8989 RESIDUE 1 Y TIP3 1
970 TIP3_970 8992 RESIDUE 1 Z TIP3 1
971 TIP3_971 8995 RESIDUE 1 A TIP3 1
972 TIP3_972 8998 RESIDUE 1 B TIP3 1
973 TIP3_973 9001 RESIDUE 1 C TIP3 1
974 TIP3_974 9004 RESIDUE 1 D TIP3 1
975 TIP3_975 9007 RESIDUE 1 E TIP3 1
976 TIP3_976 9010 RESIDUE 1 F TIP3 1
977 TIP3_977 9013 RESIDUE 1 G TIP3 1
978 TIP3_978 9016 RESIDUE 1 H TIP3 1
979 TIP3_979 9019 RESIDUE 1 I TIP3 1
980 TIP3_980 9022 RESIDUE 1 J TIP3 1
981 TIP3_981 9025 RESIDUE 1 K TIP3 1
982 TIP3_982 9028 RESIDUE 1 L TIP3 1
983 TIP3_983 9031 RESIDUE 1 M TIP3 1
984 TIP3_984 9034 RESIDUE 1 N TIP3 1
985 TIP3_985 9037 RESIDUE 1 O TIP3 1
986 TIP3_986 9040 RESIDUE 1 P TIP3 1
987 TIP3_987 9043 RESIDUE 1 Q TIP3 1
988 TIP3_988 9046 RESIDUE 1 R TIP3 1
989 TIP3_989 9049 RESIDUE 1 S TIP3 1
990 TIP3_990 9052 RESIDUE 1 T TIP3 1
991 TIP3_991 9055 RESIDUE 1 U TIP3 1
992 TIP3_992 9058 RESIDUE 1 V TIP3 1
993 TIP3_993 9061 RESIDUE 1 W TIP3 1
994 TIP3_994 9064 RESIDUE 1 X TIP3 1
995 TIP3_995 9067 RESIDUE 1 Y TIP3 1
996 TIP3_996 9070 RESIDUE 1 Z TIP3 1
997 TIP3_997 9073 RESIDUE 1 A TIP3 1
998 TIP3_998 9076 RESIDUE 1 B TIP3 1
999 TIP3_999 9079 RESIDUE 1 C TIP3 1
1000 TIP3_1000 9082 RESIDUE 1 D TIP3 1
1001 TIP3_1001 9085 RESIDUE 1 E TIP3 1
1002 TIP3_1002 9088 RESIDUE 1 F TIP3 1
1003 TIP3_1003 9091 RESIDUE 1 G TIP3 1
1004 TIP3_1004 9094 RESIDUE 1 H TIP3 1
1005 TIP3_1005 9097 RESIDUE 1 I TIP3 1
1006 TIP3_1006 9100 RESIDUE 1 J TIP3 1
1007 TIP3_1007 9103 RESIDUE 1 K TIP3 1
1008 TIP3_1008 9106 RESIDUE 1 L TIP3 1
1009 TIP3_1009 9109 RESIDUE 1 M TIP3 1
1010 TIP3_1010 9112 RESIDUE 1 N TIP3 1
1011 TIP3_1011 9115 RESIDUE 1 O TIP3 1
1012 TIP3_1012 9118 RESIDUE 1 P TIP3 1
1013 TIP3_1013 9121 RESIDUE 1 Q TIP3 1
1014 TIP3_1014 9124 RESIDUE 1 R TIP3 1
1015 TIP3_1015 9127 RESIDUE 1 S TIP3 1
1016 TIP3_1016 9130 RESIDUE 1 T TIP3 1
1017 TIP3_1017 9133 RESIDUE 1 U TIP3 1
1018 TIP3_1018 9136 RESIDUE 1 V TIP3 1
1019 TIP3_1019 9139 RESIDUE 1 W TIP3 1
1020 TIP3_1020 9142 RESIDUE 1 X TIP3 1
1021 TIP3_1021 9145 RESIDUE 1 Y TIP3 1
1022 TIP3_1022 9148 RESIDUE 1 Z TIP3 1
1023 TIP3_1023 9151 RESIDUE 1 A TIP3 1
1024 TIP3_1024 9154 RESIDUE 1 B TIP3 1
1025 TIP3_1025 9157 RESIDUE 1 C TIP3 1
1026 TIP3_1026 9160 RESIDUE 1 D TIP3 1
1027 TIP3_1027 9163 RESIDUE 1 E TIP3 1
1028 TIP3_1028 9166 RESIDUE 1 F TIP3 1
1029 TIP3_1029 9169 RESIDUE 1 G TIP3 1
1030 TIP3_1030 9172 RESIDUE 1 H TIP3 1
1031 TIP3_1031 9175 RESIDUE 1 I TIP3 1
1032 TIP3_1032 9178 RESIDUE 1 J TIP3 1
1033 TIP3_1033 9181 RESIDUE 1 K TIP3 1
1034 TIP3_1034 9184 RESIDUE 1 L TIP3 1
1035 TIP3_1035 9187 RESIDUE 1 M TIP3 1
1036 TIP3_1036 9190 RESIDUE 1 N TIP3 1
1037 TIP3_1037 9193 RESIDUE 1 O TIP3 1
1038 TIP3_1038 9196 RESIDUE 1 P TIP3 1
1039 TIP3_1039 9199 RESIDUE 1 Q TIP3 1
1040 TIP3_1040 9202 RESIDUE 1 R TIP3 1
1041 TIP3_1041 9205 RESIDUE 1 S TIP3 1
1042 TIP3_1042 9208 RESIDUE 1 T TIP3 1
1043 TIP3_1043 9211 RESIDUE 1 U TIP3 1
1044 TIP3_1044 9214 RESIDUE 1 V TIP3 1
1045 TIP3_1045 9217 RESIDUE 1 W TIP3 1
1046 TIP3_1046 9220 RESIDUE 1 X TIP3 1
1047 TIP3_1047 9223 RESIDUE 1 Y TIP3 1
1048 TIP3_1048 9226 RESIDUE 1 Z TIP3 1
1049 TIP3_1049 9229 RESIDUE 1 A TIP3 1
1050 TIP3_1050 9232 RESIDUE 1 B TIP3 1
1051 TIP3_1051 9235 RESIDUE 1 C TIP3 1
1052 TIP3_1052 9238 RESIDUE 1 D TIP3 1
1053 TIP3_1053 9241 RESIDUE 1 E TIP3 1
1054 TIP3_1054 9244 RESIDUE 1 F TIP3 1
1055 TIP3_1055 9247 RESIDUE 1 G TIP3 1
1056 TIP3_1056 9250 RESIDUE 1 H TIP3 1
1057 TIP3_1057 9253 RESIDUE 1 I TIP3 1
1058 TIP3_1058 9256 RESIDUE 1 J TIP3 1
1059 TIP3_1059 9259 RESIDUE 1 K TIP3 1
1060 TIP3_1060 9262 RESIDUE 1 L TIP3 1
1061 TIP3_1061 9265 RESIDUE 1 M TIP3 1
1062 TIP3_1062 9268 RESIDUE 1 N TIP3 1
1063 TIP3_1063 9271 RESIDUE 1 O TIP3 1
1064 TIP3_1064 9274 RESIDUE 1 P TIP3 1
1065 TIP3_1065 9277 RESIDUE 1 Q TIP3 1
1066 TIP3_1066 9280 RESIDUE 1 R TIP3 1
1067 TIP3_1067 9283 RESIDUE 1 S TIP3 1
1068 TIP3_1068 9286 RESIDUE 1 T TIP3 1
1069 TIP3_1069 9289 RESIDUE 1 U TIP3 1
1070 TIP3_1070 9292 RESIDUE 1 V TIP3 1
1071 TIP3_1071 9295 RESIDUE 1 W TIP3 1
1072 TIP3_1072 9298 RESIDUE 1 X TIP3 1
1073 TIP3_1073 9301 RESIDUE 1 Y TIP3 1
1074 TIP3_1074 9304 RESIDUE 1 Z TIP3 1
1075 TIP3_1075 9307 RESIDUE 1 A TIP3 1
1076 TIP3_1076 9310 RESIDUE 1 B TIP3 1
1077 TIP3_1077 9313 RESIDUE 1 C TIP3 1
1078 TIP3_1078 9316 RESIDUE 1 D TIP3 1
1079 TIP3_1079 9319 RESIDUE 1 E TIP3 1
1080 TIP3_1080 9322 RESIDUE 1 F TIP3 1
1081 TIP3_1081 9325 RESIDUE 1 G TIP3 1
1082 TIP3_1082 9328 RESIDUE 1 H TIP3 1
1083 TIP3_1083 9331 RESIDUE 1 I TIP3 1
1084 TIP3_1084 9334 RESIDUE 1 J TIP3 1
1085 TIP3_1085 9337 RESIDUE 1 K TIP3 1
1086 TIP3_1086 9340 RESIDUE 1 L TIP3 1
1087 TIP3_1087 9343 RESIDUE 1 M TIP3 1
1088 TIP3_1088 9346 RESIDUE 1 N TIP3 1
1089 TIP3_1089 9349 RESIDUE 1 O TIP3 1
1090 TIP3_1090 9352 RESIDUE 1 P TIP3 1
1091 TIP3_1091 9355 RESIDUE 1 Q TIP3 1
1092 TIP3_1092 9358 RESIDUE 1 R TIP3 1
1093 TIP3_1093 9361 RESIDUE 1 S TIP3 1
1094 TIP3_1094 9364 RESIDUE 1 T TIP3 1
1095 TIP3_1095 9367 RESIDUE 1 U TIP3 1
1096 TIP3_1096 9370 RESIDUE 1 V TIP3 1
1097 TIP3_1097 9373 RESIDUE 1 W TIP3 1
1098 TIP3_1098 9376 RESIDUE 1 X TIP3 1
1099 TIP3_1099 9379 RESIDUE 1 Y TIP3 1
1100 TIP3_1100 9382 RESIDUE 1 Z TIP3 1
1101 TIP3_1101 9385 RESIDUE 1 A TIP3 1
1102 TIP3_1102 9388 RESIDUE 1 B TIP3 1
1103 TIP3_1103 9391 RESIDUE 1 C TIP3 1
1104 TIP3_1104 9394 RESIDUE 1 D TIP3 1
1105 TIP3_1105 9397 RESIDUE 1 E TIP3 1
1106 TIP3_1106 9400 RESIDUE 1 F TIP3 1
1107 TIP3_1107 9403 RESIDUE 1 G TIP3 1
1108 TIP3_1108 9406 RESIDUE 1 H TIP3 1
1109 TIP3_1109 9409 RESIDUE 1 I TIP3 1
1110 TIP3_1110 9412 RESIDUE 1 J TIP3 1
1111 TIP3_1111 9415 RESIDUE 1 K TIP3 1
1112 TIP3_1112 9418 RESIDUE 1 L TIP3 1
1113 TIP3_1113 9421 RESIDUE 1 M TIP3 1
1114 TIP3_1114 9424 RESIDUE 1 N TIP3 1
1115 TIP3_1115 9427 RESIDUE 1 O TIP3 1
1116 TIP3_1116 9430 RESIDUE 1 P TIP3 1
1117 TIP3_1117 9433 RESIDUE 1 Q TIP3 1
1118 TIP3_1118 9436 RESIDUE 1 R TIP3 1
1119 TIP3_1119 9439 RESIDUE 1 S TIP3 1
1120 TIP3_1120 9442 RESIDUE 1 T TIP3 1
1121 TIP3_1121 9445 RESIDUE 1 U TIP3 1
1122 TIP3_1122 9448 RESIDUE 1 V TIP3 1
1123 TIP3_1123 9451 RESIDUE 1 W TIP3 1
1124 TIP3_1124 9454 RESIDUE 1 X TIP3 1
1125 TIP3_1125 9457 RESIDUE 1 Y TIP3 1
1126 TIP3_1126 9460 RESIDUE 1 Z TIP3 1
1127 TIP3_1127 9463 RESIDUE 1 A TIP3 1
1128 TIP3_1128 9466 RESIDUE 1 B TIP3 1
1129 TIP3_1129 9469 RESIDUE 1 C TIP3 1
1130 TIP3_1130 9472 RESIDUE 1 D TIP3 1
1131 TIP3_1131 9475 RESIDUE 1 E TIP3 1
1132 TIP3_1132 9478 RESIDUE 1 F TIP3 1
1133 TIP3_1133 9481 RESIDUE 1 G TIP3 1
1134 TIP3_1134 9484 RESIDUE 1 H TIP3 1
1135 TIP3_1135 9487 RESIDUE 1 I TIP3 1
1136 TIP3_1136 9490 RESIDUE 1 J TIP3 1
1137 TIP3_1137 9493 RESIDUE 1 K TIP3 1
1138 TIP3_1138 9496 RESIDUE 1 L TIP3 1
1139 TIP3_1139 9499 RESIDUE 1 M TIP3 1
1140 TIP3_1140 9502 RESIDUE 1 N TIP3 1
1141 TIP3_1141 9505 RESIDUE 1 O TIP3 1
1142 TIP3_1142 9508 RESIDUE 1 P TIP3 1
1143 TIP3_1143 9511 RESIDUE 1 Q TIP3 1
1144 TIP3_1144 9514 RESIDUE 1 R TIP3 1
1145 TIP3_1145 9517 RESIDUE 1 S TIP3 1
1146 TIP3_1146 9520 RESIDUE 1 T TIP3 1
1147 TIP3_1147 9523 RESIDUE 1 U TIP3 1
1148 TIP3_1148 9526 RESIDUE 1 V TIP3 1
1149 TIP3_1149 9529 RESIDUE 1 W TIP3 1
1150 TIP3_1150 9532 RESIDUE 1 X TIP3 1
1151 TIP3_1151 9535 RESIDUE 1 Y TIP3 1
1152 TIP3_1152 9538 RESIDUE 1 Z TIP3 1
1153 TIP3_1153 9541 RESIDUE 1 A TIP3 1
1154 TIP3_1154 9544 RESIDUE 1 B TIP3 1
1155 TIP3_1155 9547 RESIDUE 1 C TIP3 1
1156 TIP3_1156 9550 RESIDUE 1 D TIP3 1
1157 TIP3_1157 9553 RESIDUE 1 E TIP3 1
1158 TIP3_1158 9556 RESIDUE 1 F TIP3 1
1159 TIP3_1159 9559 RESIDUE 1 G TIP3 1
1160 TIP3_1160 9562 RESIDUE 1 H TIP3 1
1161 TIP3_1161 9565 RESIDUE 1 I TIP3 1
1162 TIP3_1162 9568 RESIDUE 1 J TIP3 1
1163 TIP3_1163 9571 RESIDUE 1 K TIP3 1
1164 TIP3_1164 9574 RESIDUE 1 L TIP3 1
1165 TIP3_1165 9577 RESIDUE 1 M TIP3 1
1166 TIP3_1166 9580 RESIDUE 1 N TIP3 1
1167 TIP3_1167 9583 RESIDUE 1 O TIP3 1
1168 TIP3_1168 9586 RESIDUE 1 P TIP3 1
1169 TIP3_1169 9589 RESIDUE 1 Q TIP3 1
1170 TIP3_1170 9592 RESIDUE 1 R TIP3 1
1171 TIP3_1171 9595 RESIDUE 1 S TIP3 1
1172 TIP3_1172 9598 RESIDUE 1 T TIP3 1
1173 TIP3_1173 9601 RESIDUE 1 U TIP3 1
1174 TIP3_1174 9604 RESIDUE 1 V TIP3 1
1175 TIP3_1175 9607 RESIDUE 1 W TIP3 1
1176 TIP3_1176 9610 RESIDUE 1 X TIP3 1
1177 TIP3_1177 9613 RESIDUE 1 Y TIP3 1
1178 TIP3_1178 9616 RESIDUE 1 Z TIP3 1
1179 TIP3_1179 9619 RESIDUE 1 A TIP3 1
1180 TIP3_1180 9622 RESIDUE 1 B TIP3 1
1181 TIP3_1181 9625 RESIDUE 1 C TIP3 1
1182 TIP3_1182 9628 RESIDUE 1 D TIP3 1
1183 TIP3_1183 9631 RESIDUE 1 E TIP3 1
1184 TIP3_1184 9634 RESIDUE 1 F TIP3 1
1185 TIP3_1185 9637 RESIDUE 1 G TIP3 1
1186 TIP3_1186 9640 RESIDUE 1 H TIP3 1
1187 TIP3_1187 9643 RESIDUE 1 I TIP3 1
1188 TIP3_1188 9646 RESIDUE 1 J TIP3 1
1189 TIP3_1189 9649 RESIDUE 1 K TIP3 1
1190 TIP3_1190 9652 RESIDUE 1 L TIP3 1
1191 TIP3_1191 9655 RESIDUE 1 M TIP3 1
1192 TIP3_1192 9658 RESIDUE 1 N TIP3 1
1193 TIP3_1193 9661 RESIDUE 1 O TIP3 1
1194 TIP3_1194 9664 RESIDUE 1 P TIP3 1
1195 TIP3_1195 9667 RESIDUE 1 Q TIP3 1
1196 TIP3_1196 9670 RESIDUE 1 R TIP3 1
1197 TIP3_1197 9673 RESIDUE 1 S TIP3 1
1198 TIP3_1198 9676 RESIDUE 1 T TIP3 1
1199 TIP3_1199 9679 RESIDUE 1 U TIP3 1
1200 TIP3_1200 9682 RESIDUE 1 V TIP3 1
1201 TIP3_1201 9685 RESIDUE 1 W TIP3 1
1202 TIP3_1202 9688 RESIDUE 1 X TIP3 1
1203 TIP3_1203 9691 RESIDUE 1 Y TIP3 1
1204 TIP3_1204 9694 RESIDUE 1 Z TIP3 1
1205 TIP3_1205 9697 RESIDUE 1 A TIP3 1
1206 TIP3_1206 9700 RESIDUE 1 B TIP3 1
1207 TIP3_1207 9703 RESIDUE 1 C TIP3 1
1208 TIP3_1208 9706 RESIDUE 1 D TIP3 1
1209 TIP3_1209 9709 RESIDUE 1 E TIP3 1
1210 TIP3_1210 9712 RESIDUE 1 F TIP3 1
1211 TIP3_1211 9715 RESIDUE 1 G TIP3 1
1212 TIP3_1212 9718 RESIDUE 1 H TIP3 1
1213 TIP3_1213 9721 RESIDUE 1 I TIP3 1
1214 TIP3_1214 9724 RESIDUE 1 J TIP3 1
1215 TIP3_1215 9727 RESIDUE 1 K TIP3 1
1216 TIP3_1216 9730 RESIDUE 1 L TIP3 1
1217 TIP3_1217 9733 RESIDUE 1 M TIP3 1
1218 TIP3_1218 9736 RESIDUE 1 N TIP3 1
1219 TIP3_1219 9739 RESIDUE 1 O TIP3 1
1220 TIP3_1220 9742 RESIDUE 1 P TIP3 1
1221 TIP3_1221 9745 RESIDUE 1 Q TIP3 1
1222 TIP3_1222 9748 RESIDUE 1 R TIP3 1
1223 TIP3_1223 9751 RESIDUE 1 S TIP3 1
1224 TIP3_1224 9754 RESIDUE 1 T TIP3 1
1225 TIP3_1225 9757 RESIDUE 1 U TIP3 1
1226 TIP3_1226 9760 RESIDUE 1 V TIP3 1
1227 TIP3_1227 9763 RESIDUE 1 W TIP3 1
1228 TIP3_1228 9766 RESIDUE 1 X TIP3 1
1229 TIP3_1229 9769 RESIDUE 1 Y TIP3 1
1230 TIP3_1230 9772 RESIDUE 1 Z TIP3 1
1231 TIP3_1231 9775 RESIDUE 1 A TIP3 1
1232 TIP3_1232 9778 RESIDUE 1 B TIP3 1
1233 TIP3_1233 9781 RESIDUE 1 C TIP3 1
1234 TIP3_1234 9784 RESIDUE 1 D TIP3 1
1235 TIP3_1235 9787 RESIDUE 1 E TIP3 1
1236 TIP3_1236 9790 RESIDUE 1 F TIP3 1
1237 TIP3_1237 9793 RESIDUE 1 G TIP3 1
1238 TIP3_1238 9796 RESIDUE 1 H TIP3 1
1239 TIP3_1239 9799 RESIDUE 1 I TIP3 1
1240 TIP3_1240 9802 RESIDUE 1 J TIP3 1
1241 TIP3_1241 9805 RESIDUE 1 K TIP3 1
1242 TIP3_1242 9808 RESIDUE 1 L TIP3 1
1243 TIP3_1243 9811 RESIDUE 1 M TIP3 1
1244 TIP3_1244 9814 RESIDUE 1 N TIP3 1
1245 TIP3_1245 9817 RESIDUE 1 O TIP3 1
1246 TIP3_1246 9820 RESIDUE 1 P TIP3 1
1247 TIP3_1247 9823 RESIDUE 1 Q TIP3 1
1248 TIP3_1248 9826 RESIDUE 1 R TIP3 1
1249 TIP3_1249 9829 RESIDUE 1 S TIP3 1
1250 TIP3_1250 9832 RESIDUE 1 T TIP3 1
1251 TIP3_1251 9835 RESIDUE 1 U TIP3 1
1252 TIP3_1252 9838 RESIDUE 1 V TIP3 1
1253 TIP3_1253 9841 RESIDUE 1 W TIP3 1
1254 TIP3_1254 9844 RESIDUE 1 X TIP3 1
1255 TIP3_1255 9847 RESIDUE 1 Y TIP3 1
1256 TIP3_1256 9850 RESIDUE 1 Z TIP3 1
1257 TIP3_1257 9853 RESIDUE 1 A TIP3 1
1258 TIP3_1258 9856 RESIDUE 1 B TIP3 1
1259 TIP3_1259 9859 RESIDUE 1 C TIP3 1
1260 TIP3_1260 9862 RESIDUE 1 D TIP3 1
1261 TIP3_1261 9865 RESIDUE 1 E TIP3 1
1262 TIP3_1262 9868 RESIDUE 1 F TIP3 1
1263 TIP3_1263 9871 RESIDUE 1 G TIP3 1
1264 TIP3_1264 9874 RESIDUE 1 H TIP3 1
1265 TIP3_1265 9877 RESIDUE 1 I TIP3 1
1266 TIP3_1266 9880 RESIDUE 1 J TIP3 1
1267 TIP3_1267 9883 RESIDUE 1 K TIP3 1
1268 TIP3_1268 9886 RESIDUE 1 L TIP3 1
1269 TIP3_1269 9889 RESIDUE 1 M TIP3 1
1270 TIP3_1270 9892 RESIDUE 1 N TIP3 1
1271 TIP3_1271 9895 RESIDUE 1 O TIP3 1
1272 TIP3_1272 9898 RESIDUE 1 P TIP3 1
1273 TIP3_1273 9901 RESIDUE 1 Q TIP3 1
1274 TIP3_1274 9904 RESIDUE 1 R TIP3 1
1275 TIP3_1275 9907 RESIDUE 1 S TIP3 1
1276 TIP3_1276 9910 RESIDUE 1 T TIP3 1
1277 TIP3_1277 9913 RESIDUE 1 U TIP3 1
1278 TIP3_1278 9916 RESIDUE 1 V TIP3 1
1279 TIP3_1279 9919 RESIDUE 1 W TIP3 1
1280 TIP3_1280 9922 RESIDUE 1 X TIP3 1
1281 TIP3_1281 9925 RESIDUE 1 Y TIP3 1
1282 TIP3_1282 9928 RESIDUE 1 Z TIP3 1
1283 TIP3_1283 9931 RESIDUE 1 A TIP3 1
1284 TIP3_1284 9934 RESIDUE 1 B TIP3 1
1285 TIP3_1285 9937 RESIDUE 1 C TIP3 1
1286 TIP3_1286 9940 RESIDUE 1 D TIP3 1
1287 TIP3_1287 9943 RESIDUE 1 E TIP3 1
1288 TIP3_1288 9946 RESIDUE 1 F TIP3 1
1289 TIP3_1289 9949 RESIDUE 1 G TIP3 1
1290 TIP3_1290 9952 RESIDUE 1 H TIP3 1
1291 TIP3_1291 9955 RESIDUE 1 I TIP3 1
1292 TIP3_1292 9958 RESIDUE 1 J TIP3 1
1293 TIP3_1293 9961 RESIDUE 1 K TIP3 1
1294 TIP3_1294 9964 RESIDUE 1 L TIP3 1
1295 TIP3_1295 9967 RESIDUE 1 M TIP3 1
1296 TIP3_1296 9970 RESIDUE 1 N TIP3 1
1297 TIP3_1297 9973 RESIDUE 1 O TIP3 1
1298 TIP3_1298 9976 RESIDUE 1 P TIP3 1
1299 TIP3_1299 9979 RESIDUE 1 Q TIP3 1
1300 TIP3_1300 9982 RESIDUE 1 R TIP3 1
1301 TIP3_1301 9985 RESIDUE 1 S TIP3 1
1302 TIP3_1302 9988 RESIDUE 1 T TIP3 1
1303 TIP3_1303 9991 RESIDUE 1 U TIP3 1
1304 TIP3_1304 9994 RESIDUE 1 V TIP3 1
1305 TIP3_1305 9997 RESIDUE 1 W TIP3 1
1306 TIP3_1306 10000 RESIDUE 1 X TIP3 1
1307 TIP3_1307 10003 RESIDUE 1 Y TIP3 1
1308 TIP3_1308 10006 RESIDUE 1 Z TIP3 1
1309 TIP3_1309 10009 RESIDUE 1 A TIP3 1
1310 TIP3_1310 10012 RESIDUE 1 B TIP3 1
1311 TIP3_1311 10015 RESIDUE 1 C TIP3 1
1312 TIP3_1312 10018 RESIDUE 1 D TIP3 1
1313 TIP3_1313 10021 RESIDUE 1 E TIP3 1
1314 TIP3_1314 10024 RESIDUE 1 F TIP3 1
1315 TIP3_1315 10027 RESIDUE 1 G TIP3 1
1316 TIP3_1316 10030 RESIDUE 1 H TIP3 1
1317 TIP3_1317 10033 RESIDUE 1 I TIP3 1
1318 TIP3_1318 10036 RESIDUE 1 J TIP3 1
1319 TIP3_1319 10039 RESIDUE 1 K TIP3 1
1320 TIP3_1320 10042 RESIDUE 1 L TIP3 1
1321 TIP3_1321 10045 RESIDUE 1 M TIP3 1
1322 TIP3_1322 10048 RESIDUE 1 N TIP3 1
1323 TIP3_1323 10051 RESIDUE 1 O TIP3 1
1324 TIP3_1324 10054 RESIDUE 1 P TIP3 1
1325 TIP3_1325 10057 RESIDUE 1 Q TIP3 1
1326 TIP3_1326 10060 RESIDUE 1 R TIP3 1
1327 TIP3_1327 10063 RESIDUE 1 S TIP3 1
1328 TIP3_1328 10066 RESIDUE 1 T TIP3 1
1329 TIP3_1329 10069 RESIDUE 1 U TIP3 1
1330 TIP3_1330 10072 RESIDUE 1 V TIP3 1
1331 TIP3_1331 10075 RESIDUE 1 W TIP3 1
1332 TIP3_1332 10078 RESIDUE 1 X TIP3 1
1333 TIP3_1333 10081 RESIDUE 1 Y TIP3 1
1334 TIP3_1334 10084 RESIDUE 1 Z TIP3 1
1335 TIP3_1335 10087 RESIDUE 1 A TIP3 1
1336 TIP3_1336 10090 RESIDUE 1 B TIP3 1
1337 TIP3_1337 10093 RESIDUE 1 C TIP3 1
1338 TIP3_1338 10096 RESIDUE 1 D TIP3 1
1339 TIP3_1339 10099 RESIDUE 1 E TIP3 1
1340 TIP3_1340 10102 RESIDUE 1 F TIP3 1
1341 TIP3_1341 10105 RESIDUE 1 G TIP3 1
1342 TIP3_1342 10108 RESIDUE 1 H TIP3 1
1343 TIP3_1343 10111 RESIDUE 1 I TIP3 1
1344 TIP3_1344 10114 RESIDUE 1 J TIP3 1
1345 TIP3_1345 10117 RESIDUE 1 K TIP3 1
1346 TIP3_1346 10120 RESIDUE 1 L TIP3 1
1347 TIP3_1347 10123 RESIDUE 1 M TIP3 1
1348 TIP3_1348 10126 RESIDUE 1 N TIP3 1
1349 TIP3_1349 10129 RESIDUE 1 O TIP3 1
1350 TIP3_1350 10132 RESIDUE 1 P TIP3 1
1351 TIP3_1351 10135 RESIDUE 1 Q TIP3 1
1352 TIP3_1352 10138 RESIDUE 1 R TIP3 1
1353 TIP3_1353 10141 RESIDUE 1 S TIP3 1
1354 TIP3_1354 10144 RESIDUE 1 T TIP3 1
1355 TIP3_1355 10147 RESIDUE 1 U TIP3 1
1356 TIP3_1356 10150 RESIDUE 1 V TIP3 1
1357 TIP3_1357 10153 RESIDUE 1 W TIP3 1
1358 TIP3_1358 10156 RESIDUE 1 X TIP3 1
1359 TIP3_1359 10159 RESIDUE 1 Y TIP3 1
1360 TIP3_1360 10162 RESIDUE 1 Z TIP3 1
1361 TIP3_1361 10165 RESIDUE 1 A TIP3 1
1362 TIP3_1362 10168 RESIDUE 1 B TIP3 1
1363 TIP3_1363 10171 RESIDUE 1 C TIP3 1
1364 TIP3_1364 10174 RESIDUE 1 D TIP3 1
1365 TIP3_1365 10177 RESIDUE 1 E TIP3 1
1366 TIP3_1366 10180 RESIDUE 1 F TIP3 1
1367 TIP3_1367 10183 RESIDUE 1 G TIP3 1
1368 TIP3_1368 10186 RESIDUE 1 H TIP3 1
1369 TIP3_1369 10189 RESIDUE 1 I TIP3 1
1370 TIP3_1370 10192 RESIDUE 1 J TIP3 1
1371 TIP3_1371 10195 RESIDUE 1 K TIP3 1
1372 TIP3_1372 10198 RESIDUE 1 L TIP3 1
1373 TIP3_1373 10201 RESIDUE 1 M TIP3 1
1374 TIP3_1374 10204 RESIDUE 1 N TIP3 1
1375 TIP3_1375 10207 RESIDUE 1 O TIP3 1
1376 TIP3_1376 10210 RESIDUE 1 P TIP3 1
1377 TIP3_1377 10213 RESIDUE 1 Q TIP3 1
1378 TIP3_1378 10216 RESIDUE 1 R TIP3 1
1379 TIP3_1379 10219 RESIDUE 1 S TIP3 1
1380 TIP3_1380 10222 RESIDUE 1 T TIP3 1
1381 TIP3_1381 10225 RESIDUE 1 U TIP3 1
1382 TIP3_1382 10228 RESIDUE 1 V TIP3 1
1383 TIP3_1383 10231 RESIDUE 1 W TIP3 1
1384 TIP3_1384 10234 RESIDUE 1 X TIP3 1
1385 TIP3_1385 10237 RESIDUE 1 Y TIP3 1
1386 TIP3_1386 10240 RESIDUE 1 Z TIP3 1
1387 TIP3_1387 10243 RESIDUE 1 A TIP3 1
1388 TIP3_1388 10246 RESIDUE 1 B TIP3 1
1389 TIP3_1389 10249 RESIDUE 1 C TIP3 1
1390 TIP3_1390 10252 RESIDUE 1 D TIP3 1
1391 TIP3_1391 10255 RESIDUE 1 E TIP3 1
1392 TIP3_1392 10258 RESIDUE 1 F TIP3 1
1393 TIP3_1393 10261 RESIDUE 1 G TIP3 1
1394 TIP3_1394 10264 RESIDUE 1 H TIP3 1
1395 TIP3_1395 10267 RESIDUE 1 I TIP3 1
1396 TIP3_1396 10270 RESIDUE 1 J TIP3 1
1397 TIP3_1397 10273 RESIDUE 1 K TIP3 1
1398 TIP3_1398 10276 RESIDUE 1 L TIP3 1
1399 TIP3_1399 10279 RESIDUE 1 M TIP3 1
1400 TIP3_1400 10282 RESIDUE 1 N TIP3 1
1401 TIP3_1401 10285 RESIDUE 1 O TIP3 1
1402 TIP3_1402 10288 RESIDUE 1 P TIP3 1
1403 TIP3_1403 10291 RESIDUE 1 Q TIP3 1
1404 TIP3_1404 10294 RESIDUE 1 R TIP3 1
1405 TIP3_1405 10297 RESIDUE 1 S TIP3 1
1406 TIP3_1406 10300 RESIDUE 1 T TIP3 1
1407 TIP3_1407 10303 RESIDUE 1 U TIP3 1
1408 TIP3_1408 10306 RESIDUE 1 V TIP3 1
1409 TIP3_1409 10309 RESIDUE 1 W TIP3 1
1410 TIP3_1410 10312 RESIDUE 1 X TIP3 1
1411 TIP3_1411 10315 RESIDUE 1 Y TIP3 1
1412 TIP3_1412 10318 RESIDUE 1 Z TIP3 1
1413 TIP3_1413 10321 RESIDUE 1 A TIP3 1
1414 TIP3_1414 10324 RESIDUE 1 B TIP3 1
1415 TIP3_1415 10327 RESIDUE 1 C TIP3 1
1416 TIP3_1416 10330 RESIDUE 1 D TIP3 1
1417 TIP3_1417 10333 RESIDUE 1 E TIP3 1
1418 TIP3_1418 10336 RESIDUE 1 F TIP3 1
1419 TIP3_1419 10339 RESIDUE 1 G TIP3 1
1420 TIP3_1420 10342 RESIDUE 1 H TIP3 1
1421 TIP3_1421 10345 RESIDUE 1 I TIP3 1
1422 TIP3_1422 10348 RESIDUE 1 J TIP3 1
1423 TIP3_1423 10351 RESIDUE 1 K TIP3 1
1424 TIP3_1424 10354 RESIDUE 1 L TIP3 1
1425 TIP3_1425 10357 RESIDUE 1 M TIP3 1
1426 TIP3_1426 10360 RESIDUE 1 N TIP3 1
1427 TIP3_1427 10363 RESIDUE 1 O TIP3 1
1428 TIP3_1428 10366 RESIDUE 1 P TIP3 1
1429 TIP3_1429 10369 RESIDUE 1 Q TIP3 1
1430 TIP3_1430 10372 RESIDUE 1 R TIP3 1
1431 TIP3_1431 10375 RESIDUE 1 S TIP3 1
1432 TIP3_1432 10378 RESIDUE 1 T TIP3 1
1433 TIP3_1433 10381 RESIDUE 1 U TIP3 1
1434 TIP3_1434 10384 RESIDUE 1 V TIP3 1
1435 TIP3_1435 10387 RESIDUE 1 W TIP3 1
1436 TIP3_1436 10390 RESIDUE 1 X TIP3 1
1437 TIP3_1437 10393 RESIDUE 1 Y TIP3 1
1438 TIP3_1438 10396 RESIDUE 1 Z TIP3 1
1439 TIP3_1439 10399 RESIDUE 1 A TIP3 1
1440 TIP3_1440 10402 RESIDUE 1 B TIP3 1
1441 TIP3_1441 10405 RESIDUE 1 C TIP3 1
1442 TIP3_1442 10408 RESIDUE 1 D TIP3 1
1443 TIP3_1443 10411 RESIDUE 1 E TIP3 1
1444 TIP3_1444 10414 RESIDUE 1 F TIP3 1
1445 TIP3_1445 10417 RESIDUE 1 G TIP3 1
1446 TIP3_1446 10420 RESIDUE 1 H TIP3 1
1447 TIP3_1447 10423 RESIDUE 1 I TIP3 1
1448 TIP3_1448 10426 RESIDUE 1 J TIP3 1
1449 TIP3_1449 10429 RESIDUE 1 K TIP3 1
1450 TIP3_1450 10432 RESIDUE 1 L TIP3 1
1451 TIP3_1451 10435 RESIDUE 1 M TIP3 1
1452 TIP3_1452 10438 RESIDUE 1 N TIP3 1
1453 TIP3_1453 10441 RESIDUE 1 O TIP3 1
1454 TIP3_1454 10444 RESIDUE 1 P TIP3 1
1455 TIP3_1455 10447 RESIDUE 1 Q TIP3 1
1456 TIP3_1456 10450 RESIDUE 1 R TIP3 1
1457 TIP3_1457 10453 RESIDUE 1 S TIP3 1
1458 TIP3_1458 10456 RESIDUE 1 T TIP3 1
1459 TIP3_1459 10459 RESIDUE 1 U TIP3 1
1460 TIP3_1460 10462 RESIDUE 1 V TIP3 1
1461 TIP3_1461 10465 RESIDUE 1 W TIP3 1
1462 TIP3_1462 10468 RESIDUE 1 X TIP3 1
1463 TIP3_1463 10471 RESIDUE 1 Y TIP3 1
1464 TIP3_1464 10474 RESIDUE 1 Z TIP3 1
1465 TIP3_1465 10477 RESIDUE 1 A TIP3 1
1466 TIP3_1466 10480 RESIDUE 1 B TIP3 1
1467 TIP3_1467 10483 RESIDUE 1 C TIP3 1
1468 TIP3_1468 10486 RESIDUE 1 D TIP3 1
1469 TIP3_1469 10489 RESIDUE 1 E TIP3 1
1470 TIP3_1470 10492 RESIDUE 1 F TIP3 1
1471 TIP3_1471 10495 RESIDUE 1 G TIP3 1
1472 TIP3_1472 10498 RESIDUE 1 H TIP3 1
1473 TIP3_1473 10501 RESIDUE 1 I TIP3 1
1474 TIP3_1474 10504 RESIDUE 1 J TIP3 1
1475 TIP3_1475 10507 RESIDUE 1 K TIP3 1
1476 TIP3_1476 10510 RESIDUE 1 L TIP3 1
1477 TIP3_1477 10513 RESIDUE 1 M TIP3 1
1478 TIP3_1478 10516 RESIDUE 1 N TIP3 1
1479 TIP3_1479 10519 RESIDUE 1 O TIP3 1
1480 TIP3_1480 10522 RESIDUE 1 P TIP3 1
1481 TIP3_1481 10525 RESIDUE 1 Q TIP3 1
1482 TIP3_1482 10528 RESIDUE 1 R TIP3 1
1483 TIP3_1483 10531 RESIDUE 1 S TIP3 1
1484 TIP3_1484 10534 RESIDUE 1 T TIP3 1
1485 TIP3_1485 10537 RESIDUE 1 U TIP3 1
1486 TIP3_1486 10540 RESIDUE 1 V TIP3 1
1487 TIP3_1487 10543 RESIDUE 1 W TIP3 1
1488 TIP3_1488 10546 RESIDUE 1 X TIP3 1
1489 TIP3_1489 10549 RESIDUE 1 Y TIP3 1
1490 TIP3_1490 10552 RESIDUE 1 Z TIP3 1
1491 TIP3_1491 10555 RESIDUE 1 A TIP3 1
1492 TIP3_1492 10558 RESIDUE 1 B TIP3 1
1493 TIP3_1493 10561 RESIDUE 1 C TIP3 1
1494 TIP3_1494 10564 RESIDUE 1 D TIP3 1
1495 TIP3_1495 10567 RESIDUE 1 E TIP3 1
1496 TIP3_1496 10570 RESIDUE 1 F TIP3 1
1497 TIP3_1497 10573 RESIDUE 1 G TIP3 1
1498 TIP3_1498 10576 RESIDUE 1 H TIP3 1
1499 TIP3_1499 10579 RESIDUE 1 I TIP3 1
1500 TIP3_1500 10582 RESIDUE 1 J TIP3 1
1501 TIP3_1501 10585 RESIDUE 1 K TIP3 1
1502 TIP3_1502 10588 RESIDUE 1 L TIP3 1
1503 TIP3_1503 10591 RESIDUE 1 M TIP3 1
1504 TIP3_1504 10594 RESIDUE 1 N TIP3 1
1505 TIP3_1505 10597 RESIDUE 1 O TIP3 1
1506 TIP3_1506 10600 RESIDUE 1 P TIP3 1
1507 TIP3_1507 10603 RESIDUE 1 Q TIP3 1
1508 TIP3_1508 10606 RESIDUE 1 R TIP3 1
1509 TIP3_1509 10609 RESIDUE 1 S TIP3 1
1510 TIP3_1510 10612 RESIDUE 1 T TIP3 1
1511 TIP3_1511 10615 RESIDUE 1 U TIP3 1
1512 TIP3_1512 10618 RESIDUE 1 V TIP3 1
1513 TIP3_1513 10621 RESIDUE 1 W TIP3 1
1514 TIP3_1514 10624 RESIDUE 1 X TIP3 1
1515 TIP3_1515 10627 RESIDUE 1 Y TIP3 1
1516 TIP3_1516 10630 RESIDUE 1 Z TIP3 1
1517 TIP3_1517 10633 RESIDUE 1 A TIP3 1
1518 TIP3_1518 10636 RESIDUE 1 B TIP3 1
1519 TIP3_1519 10639 RESIDUE 1 C TIP3 1
1520 TIP3_1520 10642 RESIDUE 1 D TIP3 1
1521 TIP3_1521 10645 RESIDUE 1 E TIP3 1
1522 TIP3_1522 10648 RESIDUE 1 F TIP3 1
1523 TIP3_1523 10651 RESIDUE 1 G TIP3 1
1524 TIP3_1524 10654 RESIDUE 1 H TIP3 1
1525 TIP3_1525 10657 RESIDUE 1 I TIP3 1
1526 TIP3_1526 10660 RESIDUE 1 J TIP3 1
1527 TIP3_1527 10663 RESIDUE 1 K TIP3 1
1528 TIP3_1528 10666 RESIDUE 1 L TIP3 1
1529 TIP3_1529 10669 RESIDUE 1 M TIP3 1
1530 TIP3_1530 10672 RESIDUE 1 N TIP3 1
1531 TIP3_1531 10675 RESIDUE 1 O TIP3 1
1532 TIP3_1532 10678 RESIDUE 1 P TIP3 1
1533 TIP3_1533 10681 RESIDUE 1 Q TIP3 1
1534 TIP3_1534 10684 RESIDUE 1 R TIP3 1
1535 TIP3_1535 10687 RESIDUE 1 S TIP3 1
1536 TIP3_1536 10690 RESIDUE 1 T TIP3 1
1537 TIP3_1537 10693 RESIDUE 1 U TIP3 1
1538 TIP3_1538 10696 RESIDUE 1 V TIP3 1
1539 TIP3_1539 10699 RESIDUE 1 W TIP3 1
1540 TIP3_1540 10702 RESIDUE 1 X TIP3 1
1541 TIP3_1541 10705 RESIDUE 1 Y TIP3 1
1542 TIP3_1542 10708 RESIDUE 1 Z TIP3 1
1543 TIP3_1543 10711 RESIDUE 1 A TIP3 1
1544 TIP3_1544 10714 RESIDUE 1 B TIP3 1
1545 TIP3_1545 10717 RESIDUE 1 C TIP3 1
1546 TIP3_1546 10720 RESIDUE 1 D TIP3 1
1547 TIP3_1547 10723 RESIDUE 1 E TIP3 1
1548 TIP3_1548 10726 RESIDUE 1 F TIP3 1
1549 TIP3_1549 10729 RESIDUE 1 G TIP3 1
1550 TIP3_1550 10732 RESIDUE 1 H TIP3 1
1551 TIP3_1551 10735 RESIDUE 1 I TIP3 1
1552 TIP3_1552 10738 RESIDUE 1 J TIP3 1
1553 TIP3_1553 10741 RESIDUE 1 K TIP3 1
1554 TIP3_1554 10744 RESIDUE 1 L TIP3 1
1555 TIP3_1555 10747 RESIDUE 1 M TIP3 1
1556 TIP3_1556 10750 RESIDUE 1 N TIP3 1
1557 TIP3_1557 10753 RESIDUE 1 O TIP3 1
1558 TIP3_1558 10756 RESIDUE 1 P TIP3 1
1559 TIP3_1559 10759 RESIDUE 1 Q TIP3 1
1560 TIP3_1560 10762 RESIDUE 1 R TIP3 1
1561 TIP3_1561 10765 RESIDUE 1 S TIP3 1
1562 TIP3_1562 10768 RESIDUE 1 T TIP3 1
1563 TIP3_1563 10771 RESIDUE 1 U TIP3 1
1564 TIP3_1564 10774 RESIDUE 1 V TIP3 1
1565 TIP3_1565 10777 RESIDUE 1 W TIP3 1
1566 TIP3_1566 10780 RESIDUE 1 X TIP3 1
1567 TIP3_1567 10783 RESIDUE 1 Y TIP3 1
1568 TIP3_1568 10786 RESIDUE 1 Z TIP3 1
1569 TIP3_1569 10789 RESIDUE 1 A TIP3 1
1570 TIP3_1570 10792 RESIDUE 1 B TIP3 1
1571 TIP3_1571 10795 RESIDUE 1 C TIP3 1
1572 TIP3_1572 10798 RESIDUE 1 D TIP3 1
1573 TIP3_1573 10801 RESIDUE 1 E TIP3 1
1574 TIP3_1574 10804 RESIDUE 1 F TIP3 1
1575 TIP3_1575 10807 RESIDUE 1 G TIP3 1
1576 TIP3_1576 10810 RESIDUE 1 H TIP3 1
1577 TIP3_1577 10813 RESIDUE 1 I TIP3 1
1578 TIP3_1578 10816 RESIDUE 1 J TIP3 1
1579 TIP3_1579 10819 RESIDUE 1 K TIP3 1
1580 TIP3_1580 10822 RESIDUE 1 L TIP3 1
1581 TIP3_1581 10825 RESIDUE 1 M TIP3 1
1582 TIP3_1582 10828 RESIDUE 1 N TIP3 1
1583 TIP3_1583 10831 RESIDUE 1 O TIP3 1
1584 TIP3_1584 10834 RESIDUE 1 P TIP3 1
1585 TIP3_1585 10837 RESIDUE 1 Q TIP3 1
1586 TIP3_1586 10840 RESIDUE 1 R TIP3 1
1587 TIP3_1587 10843 RESIDUE 1 S TIP3 1
1588 TIP3_1588 10846 RESIDUE 1 T TIP3 1
1589 TIP3_1589 10849 RESIDUE 1 U TIP3 1
1590 TIP3_1590 10852 RESIDUE 1 V TIP3 1
1591 TIP3_1591 10855 RESIDUE 1 W TIP3 1
1592 TIP3_1592 10858 RESIDUE 1 X TIP3 1
1593 TIP3_1593 10861 RESIDUE 1 Y TIP3 1
1594 TIP3_1594 10864 RESIDUE 1 Z TIP3 1
1595 TIP3_1595 10867 RESIDUE 1 A TIP3 1
1596 TIP3_1596 10870 RESIDUE 1 B TIP3 1
1597 TIP3_1597 10873 RESIDUE 1 C TIP3 1
1598 TIP3_1598 10876 RESIDUE 1 D TIP3 1
1599 TIP3_1599 10879 RESIDUE 1 E TIP3 1
1600 TIP3_1600 10882 RESIDUE 1 F TIP3 1
1601 TIP3_1601 10885 RESIDUE 1 G TIP3 1
1602 TIP3_1602 10888 RESIDUE 1 H TIP3 1
1603 TIP3_1603 10891 RESIDUE 1 I TIP3 1
1604 TIP3_1604 10894 RESIDUE 1 J TIP3 1
1605 TIP3_1605 10897 RESIDUE 1 K TIP3 1
1606 TIP3_1606 10900 RESIDUE 1 L TIP3 1
1607 TIP3_1607 10903 RESIDUE 1 M TIP3 1
1608 TIP3_1608 10906 RESIDUE 1 N TIP3 1
1609 TIP3_1609 10909 RESIDUE 1 O TIP3 1
1610 TIP3_1610 10912 RESIDUE 1 P TIP3 1
1611 TIP3_1611 10915 RESIDUE 1 Q TIP3 1
1612 TIP3_1612 10918 RESIDUE 1 R TIP3 1
1613 TIP3_1613 10921 RESIDUE 1 S TIP3 1
1614 TIP3_1614 10924 RESIDUE 1 T TIP3 1
1615 TIP3_1615 10927 RESIDUE 1 U TIP3 1
1616 TIP3_1616 10930 RESIDUE 1 V TIP3 1
1617 TIP3_1617 10933 RESIDUE 1 W TIP3 1
1618 TIP3_1618 10936 RESIDUE 1 X TIP3 1
1619 TIP3_1619 10939 RESIDUE 1 Y TIP3 1
1620 TIP3_1620 10942 RESIDUE 1 Z TIP3 1
1621 TIP3_1621 10945 RESIDUE 1 A TIP3 1
1622 TIP3_1622 10948 RESIDUE 1 B TIP3 1
1623 TIP3_1623 10951 RESIDUE 1 C TIP3 1
1624 TIP3_1624 10954 RESIDUE 1 D TIP3 1
1625 TIP3_1625 10957 RESIDUE 1 E TIP3 1
1626 TIP3_1626 10960 RESIDUE 1 F TIP3 1
1627 TIP3_1627 10963 RESIDUE 1 G TIP3 1
1628 TIP3_1628 10966 RESIDUE 1 H TIP3 1
1629 TIP3_1629 10969 RESIDUE 1 I TIP3 1
1630 TIP3_1630 10972 RESIDUE 1 J TIP3 1
1631 TIP3_1631 10975 RESIDUE 1 K TIP3 1
1632 TIP3_1632 10978 RESIDUE 1 L TIP3 1
1633 TIP3_1633 10981 RESIDUE 1 M TIP3 1
1634 TIP3_1634 10984 RESIDUE 1 N TIP3 1
1635 TIP3_1635 10987 RESIDUE 1 O TIP3 1
1636 TIP3_1636 10990 RESIDUE 1 P TIP3 1
1637 TIP3_1637 10993 RESIDUE 1 Q TIP3 1
1638 TIP3_1638 10996 RESIDUE 1 R TIP3 1
1639 TIP3_1639 10999 RESIDUE 1 S TIP3 1
1640 TIP3_1640 11002 RESIDUE 1 T TIP3 1
1641 TIP3_1641 11005 RESIDUE 1 U TIP3 1
1642 TIP3_1642 11008 RESIDUE 1 V TIP3 1
1643 TIP3_1643 11011 RESIDUE 1 W TIP3 1
1644 TIP3_1644 11014 RESIDUE 1 X TIP3 1
1645 TIP3_1645 11017 RESIDUE 1 Y TIP3 1
1646 TIP3_1646 11020 RESIDUE 1 Z TIP3 1
1647 TIP3_1647 11023 RESIDUE 1 A TIP3 1
1648 TIP3_1648 11026 RESIDUE 1 B TIP3 1
1649 TIP3_1649 11029 RESIDUE 1 C TIP3 1
1650 TIP3_1650 11032 RESIDUE 1 D TIP3 1
1651 TIP3_1651 11035 RESIDUE 1 E TIP3 1
1652 TIP3_1652 11038 RESIDUE 1 F TIP3 1
1653 TIP3_1653 11041 RESIDUE 1 G TIP3 1
1654 TIP3_1654 11044 RESIDUE 1 H TIP3 1
1655 TIP3_1655 11047 RESIDUE 1 I TIP3 1
1656 TIP3_1656 11050 RESIDUE 1 J TIP3 1
1657 TIP3_1657 11053 RESIDUE 1 K TIP3 1
1658 TIP3_1658 11056 RESIDUE 1 L TIP3 1
1659 TIP3_1659 11059 RESIDUE 1 M TIP3 1
1660 TIP3_1660 11062 RESIDUE 1 N TIP3 1
1661 TIP3_1661 11065 RESIDUE 1 O TIP3 1
1662 TIP3_1662 11068 RESIDUE 1 P TIP3 1
1663 TIP3_1663 11071 RESIDUE 1 Q TIP3 1
1664 TIP3_1664 11074 RESIDUE 1 R TIP3 1
1665 TIP3_1665 11077 RESIDUE 1 S TIP3 1
1666 TIP3_1666 11080 RESIDUE 1 T TIP3 1
1667 TIP3_1667 11083 RESIDUE 1 U TIP3 1
1668 TIP3_1668 11086 RESIDUE 1 V TIP3 1
1669 TIP3_1669 11089 RESIDUE 1 W TIP3 1
1670 TIP3_1670 11092 RESIDUE 1 X TIP3 1
1671 TIP3_1671 11095 RESIDUE 1 Y TIP3 1
1672 TIP3_1672 11098 RESIDUE 1 Z TIP3 1
1673 TIP3_1673 11101 RESIDUE 1 A TIP3 1
1674 TIP3_1674 11104 RESIDUE 1 B TIP3 1
1675 TIP3_1675 11107 RESIDUE 1 C TIP3 1
1676 TIP3_1676 11110 RESIDUE 1 D TIP3 1
1677 TIP3_1677 11113 RESIDUE 1 E TIP3 1
1678 TIP3_1678 11116 RESIDUE 1 F TIP3 1
1679 TIP3_1679 11119 RESIDUE 1 G TIP3 1
1680 TIP3_1680 11122 RESIDUE 1 H TIP3 1
1681 TIP3_1681 11125 RESIDUE 1 I TIP3 1
1682 TIP3_1682 11128 RESIDUE 1 J TIP3 1
1683 TIP3_1683 11131 RESIDUE 1 K TIP3 1
1684 TIP3_1684 11134 RESIDUE 1 L TIP3 1
1685 TIP3_1685 11137 RESIDUE 1 M TIP3 1
1686 TIP3_1686 11140 RESIDUE 1 N TIP3 1
1687 TIP3_1687 11143 RESIDUE 1 O TIP3 1
1688 TIP3_1688 11146 RESIDUE 1 P TIP3 1
1689 TIP3_1689 11149 RESIDUE 1 Q TIP3 1
1690 TIP3_1690 11152 RESIDUE 1 R TIP3 1
1691 TIP3_1691 11155 RESIDUE 1 S TIP3 1
1692 TIP3_1692 11158 RESIDUE 1 T TIP3 1
1693 TIP3_1693 11161 RESIDUE 1 U TIP3 1
1694 TIP3_1694 11164 RESIDUE 1 V TIP3 1
1695 TIP3_1695 11167 RESIDUE 1 W TIP3 1
1696 TIP3_1696 11170 RESIDUE 1 X TIP3 1
1697 TIP3_1697 11173 RESIDUE 1 Y TIP3 1
1698 TIP3_1698 11176 RESIDUE 1 Z TIP3 1
1699 TIP3_1699 11179 RESIDUE 1 A TIP3 1
1700 TIP3_1700 11182 RESIDUE 1 B TIP3 1
1701 TIP3_1701 11185 RESIDUE 1 C TIP3 1
1702 TIP3_1702 11188 RESIDUE 1 D TIP3 1
1703 TIP3_1703 11191 RESIDUE 1 E TIP3 1
1704 TIP3_1704 11194 RESIDUE 1 F TIP3 1
1705 TIP3_1705 11197 RESIDUE 1 G TIP3 1
1706 TIP3_1706 11200 RESIDUE 1 H TIP3 1
1707 TIP3_1707 11203 RESIDUE 1 I TIP3 1
1708 TIP3_1708 11206 RESIDUE 1 J TIP3 1
1709 TIP3_1709 11209 RESIDUE 1 K TIP3 1
1710 TIP3_1710 11212 RESIDUE 1 L TIP3 1
1711 TIP3_1711 11215 RESIDUE 1 M TIP3 1
1712 TIP3_1712 11218 RESIDUE 1 N TIP3 1
1713 TIP3_1713 11221 RESIDUE 1 O TIP3 1
1714 TIP3_1714 11224 RESIDUE 1 P TIP3 1
1715 TIP3_1715 11227 RESIDUE 1 Q TIP3 1
1716 TIP3_1716 11230 RESIDUE 1 R TIP3 1
1717 TIP3_1717 11233 RESIDUE 1 S TIP3 1
1718 TIP3_1718 11236 RESIDUE 1 T TIP3 1
1719 TIP3_1719 11239 RESIDUE 1 U TIP3 1
1720 TIP3_1720 11242 RESIDUE 1 V TIP3 1
1721 TIP3_1721 11245 RESIDUE 1 W TIP3 1
1722 TIP3_1722 11248 RESIDUE 1 X TIP3 1
1723 TIP3_1723 11251 RESIDUE 1 Y TIP3 1
1724 TIP3_1724 11254 RESIDUE 1 Z TIP3 1
1725 TIP3_1725 11257 RESIDUE 1 A TIP3 1
1726 TIP3_1726 11260 RESIDUE 1 B TIP3 1
1727 TIP3_1727 11263 RESIDUE 1 C TIP3 1
1728 TIP3_1728 11266 RESIDUE 1 D TIP3 1
1729 TIP3_1729 11269 RESIDUE 1 E TIP3 1
1730 TIP3_1730 11272 RESIDUE 1 F TIP3 1
1731 TIP3_1731 11275 RESIDUE 1 G TIP3 1
1732 TIP3_1732 11278 RESIDUE 1 H TIP3 1
1733 TIP3_1733 11281 RESIDUE 1 I TIP3 1
1734 TIP3_1734 11284 RESIDUE 1 J TIP3 1
1735 TIP3_1735 11287 RESIDUE 1 K TIP3 1
1736 TIP3_1736 11290 RESIDUE 1 L TIP3 1
1737 TIP3_1737 11293 RESIDUE 1 M TIP3 1
1738 TIP3_1738 11296 RESIDUE 1 N TIP3 1
1739 TIP3_1739 11299 RESIDUE 1 O TIP3 1
1740 TIP3_1740 11302 RESIDUE 1 P TIP3 1
1741 TIP3_1741 11305 RESIDUE 1 Q TIP3 1
1742 TIP3_1742 11308 RESIDUE 1 R TIP3 1
1743 TIP3_1743 11311 RESIDUE 1 S TIP3 1
1744 TIP3_1744 11314 RESIDUE 1 T TIP3 1
1745 TIP3_1745 11317 RESIDUE 1 U TIP3 1
1746 TIP3_1746 11320 RESIDUE 1 V TIP3 1
1747 TIP3_1747 11323 RESIDUE 1 W TIP3 1
1748 TIP3_1748 11326 RESIDUE 1 X TIP3 1
1749 TIP3_1749 11329 RESIDUE 1 Y TIP3 1
1750 TIP3_1750 11332 RESIDUE 1 Z TIP3 1
1751 TIP3_1751 11335 RESIDUE 1 A TIP3 1
1752 TIP3_1752 11338 RESIDUE 1 B TIP3 1
1753 TIP3_1753 11341 RESIDUE 1 C TIP3 1
1754 TIP3_1754 11344 RESIDUE 1 D TIP3 1
1755 TIP3_1755 11347 RESIDUE 1 E TIP3 1
1756 TIP3_1756 11350 RESIDUE 1 F TIP3 1
1757 TIP3_1757 11353 RESIDUE 1 G TIP3 1
1758 TIP3_1758 11356 RESIDUE 1 H TIP3 1
1759 TIP3_1759 11359 RESIDUE 1 I TIP3 1
1760 TIP3_1760 11362 RESIDUE 1 J TIP3 1
1761 TIP3_1761 11365 RESIDUE 1 K TIP3 1
1762 TIP3_1762 11368 RESIDUE 1 L TIP3 1
1763 TIP3_1763 11371 RESIDUE 1 M TIP3 1
1764 TIP3_1764 11374 RESIDUE 1 N TIP3 1
1765 TIP3_1765 11377 RESIDUE 1 O TIP3 1
1766 TIP3_1766 11380 RESIDUE 1 P TIP3 1
1767 TIP3_1767 11383 RESIDUE 1 Q TIP3 1
1768 TIP3_1768 11386 RESIDUE 1 R TIP3 1
1769 TIP3_1769 11389 RESIDUE 1 S TIP3 1
1770 TIP3_1770 11392 RESIDUE 1 T TIP3 1
1771 TIP3_1771 11395 RESIDUE 1 U TIP3 1
1772 TIP3_1772 11398 RESIDUE 1 V TIP3 1
1773 TIP3_1773 11401 RESIDUE 1 W TIP3 1
1774 TIP3_1774 11404 RESIDUE 1 X TIP3 1
1775 TIP3_1775 11407 RESIDUE 1 Y TIP3 1
1776 TIP3_1776 11410 RESIDUE 1 Z TIP3 1
1777 TIP3_1777 11413 RESIDUE 1 A TIP3 1
1778 TIP3_1778 11416 RESIDUE 1 B TIP3 1
1779 TIP3_1779 11419 RESIDUE 1 C TIP3 1
1780 TIP3_1780 11422 RESIDUE 1 D TIP3 1
1781 TIP3_1781 11425 RESIDUE 1 E TIP3 1
1782 TIP3_1782 11428 RESIDUE 1 F TIP3 1
1783 TIP3_1783 11431 RESIDUE 1 G TIP3 1
1784 TIP3_1784 11434 RESIDUE 1 H TIP3 1
1785 TIP3_1785 11437 RESIDUE 1 I TIP3 1
1786 TIP3_1786 11440 RESIDUE 1 J TIP3 1
1787 TIP3_1787 11443 RESIDUE 1 K TIP3 1
1788 TIP3_1788 11446 RESIDUE 1 L TIP3 1
1789 TIP3_1789 11449 RESIDUE 1 M TIP3 1
1790 TIP3_1790 11452 RESIDUE 1 N TIP3 1
1791 TIP3_1791 11455 RESIDUE 1 O TIP3 1
1792 TIP3_1792 11458 RESIDUE 1 P TIP3 1
1793 TIP3_1793 11461 RESIDUE 1 Q TIP3 1
1794 TIP3_1794 11464 RESIDUE 1 R TIP3 1
1795 TIP3_1795 11467 RESIDUE 1 S TIP3 1
1796 TIP3_1796 11470 RESIDUE 1 T TIP3 1
1797 TIP3_1797 11473 RESIDUE 1 U TIP3 1
1798 TIP3_1798 11476 RESIDUE 1 V TIP3 1
1799 TIP3_1799 11479 RESIDUE 1 W TIP3 1
1800 TIP3_1800 11482 RESIDUE 1 X TIP3 1
1801 TIP3_1801 11485 RESIDUE 1 Y TIP3 1
1802 TIP3_1802 11488 RESIDUE 1 Z TIP3 1
1803 TIP3_1803 11491 RESIDUE 1 A TIP3 1
1804 TIP3_1804 11494 RESIDUE 1 B TIP3 1
1805 TIP3_1805 11497 RESIDUE 1 C TIP3 1
1806 TIP3_1806 11500 RESIDUE 1 D TIP3 1
1807 TIP3_1807 11503 RESIDUE 1 E TIP3 1
1808 TIP3_1808 11506 RESIDUE 1 F TIP3 1
1809 TIP3_1809 11509 RESIDUE 1 G TIP3 1
1810 TIP3_1810 11512 RESIDUE 1 H TIP3 1
1811 TIP3_1811 11515 RESIDUE 1 I TIP3 1
1812 TIP3_1812 11518 RESIDUE 1 J TIP3 1
1813 TIP3_1813 11521 RESIDUE 1 K TIP3 1
1814 TIP3_1814 11524 RESIDUE 1 L TIP3 1
1815 TIP3_1815 11527 RESIDUE 1 M TIP3 1
1816 TIP3_1816 11530 RESIDUE 1 N TIP3 1
1817 TIP3_1817 11533 RESIDUE 1 O TIP3 1
1818 TIP3_1818 11536 RESIDUE 1 P TIP3 1
1819 TIP3_1819 11539 RESIDUE 1 Q TIP3 1
1820 TIP3_1820 11542 RESIDUE 1 R TIP3 1
1821 TIP3_1821 11545 RESIDUE 1 S TIP3 1
1822 TIP3_1822 11548 RESIDUE 1 T TIP3 1
1823 TIP3_1823 11551 RESIDUE 1 U TIP3 1
1824 TIP3_1824 11554 RESIDUE 1 V TIP3 1
1825 TIP3_1825 11557 RESIDUE 1 W TIP3 1
1826 TIP3_1826 11560 RESIDUE 1 X TIP3 1
1827 TIP3_1827 11563 RESIDUE 1 Y TIP3 1
1828 TIP3_1828 11566 RESIDUE 1 Z TIP3 1
1829 TIP3_1829 11569 RESIDUE 1 A TIP3 1
1830 TIP3_1830 11572 RESIDUE 1 B TIP3 1
1831 TIP3_1831 11575 RESIDUE 1 C TIP3 1
1832 TIP3_1832 11578 RESIDUE 1 D TIP3 1
1833 TIP3_1833 11581 RESIDUE 1 E TIP3 1
1834 TIP3_1834 11584 RESIDUE 1 F TIP3 1
1835 TIP3_1835 11587 RESIDUE 1 G TIP3 1
1836 TIP3_1836 11590 RESIDUE 1 H TIP3 1
1837 TIP3_1837 11593 RESIDUE 1 I TIP3 1
1838 TIP3_1838 11596 RESIDUE 1 J TIP3 1
1839 TIP3_1839 11599 RESIDUE 1 K TIP3 1
1840 TIP3_1840 11602 RESIDUE 1 L TIP3 1
1841 TIP3_1841 11605 RESIDUE 1 M TIP3 1
1842 TIP3_1842 11608 RESIDUE 1 N TIP3 1
1843 TIP3_1843 11611 RESIDUE 1 O TIP3 1
1844 TIP3_1844 11614 RESIDUE 1 P TIP3 1
1845 TIP3_1845 11617 RESIDUE 1 Q TIP3 1
1846 TIP3_1846 11620 RESIDUE 1 R TIP3 1
1847 TIP3_1847 11623 RESIDUE 1 S TIP3 1
1848 TIP3_1848 11626 RESIDUE 1 T TIP3 1
1849 TIP3_1849 11629 RESIDUE 1 U TIP3 1
1850 TIP3_1850 11632 RESIDUE 1 V TIP3 1
1851 TIP3_1851 11635 RESIDUE 1 W TIP3 1
1852 TIP3_1852 11638 RESIDUE 1 X TIP3 1
1853 TIP3_1853 11641 RESIDUE 1 Y TIP3 1
1854 TIP3_1854 11644 RESIDUE 1 Z TIP3 1
1855 TIP3_1855 11647 RESIDUE 1 A TIP3 1
1856 TIP3_1856 11650 RESIDUE 1 B TIP3 1
1857 TIP3_1857 11653 RESIDUE 1 C TIP3 1
1858 TIP3_1858 11656 RESIDUE 1 D TIP3 1
1859 TIP3_1859 11659 RESIDUE 1 E TIP3 1
1860 TIP3_1860 11662 RESIDUE 1 F TIP3 1
1861 TIP3_1861 11665 RESIDUE 1 G TIP3 1
1862 TIP3_1862 11668 RESIDUE 1 H TIP3 1
1863 TIP3_1863 11671 RESIDUE 1 I TIP3 1
1864 TIP3_1864 11674 RESIDUE 1 J TIP3 1
1865 TIP3_1865 11677 RESIDUE 1 K TIP3 1
1866 TIP3_1866 11680 RESIDUE 1 L TIP3 1
1867 TIP3_1867 11683 RESIDUE 1 M TIP3 1
1868 TIP3_1868 11686 RESIDUE 1 N TIP3 1
1869 TIP3_1869 11689 RESIDUE 1 O TIP3 1
1870 TIP3_1870 11692 RESIDUE 1 P TIP3 1
1871 TIP3_1871 11695 RESIDUE 1 Q TIP3 1
1872 TIP3_1872 11698 RESIDUE 1 R TIP3 1
1873 TIP3_1873 11701 RESIDUE 1 S TIP3 1
1874 TIP3_1874 11704 RESIDUE 1 T TIP3 1
1875 TIP3_1875 11707 RESIDUE 1 U TIP3 1
1876 TIP3_1876 11710 RESIDUE 1 V TIP3 1
1877 TIP3_1877 11713 RESIDUE 1 W TIP3 1
1878 TIP3_1878 11716 RESIDUE 1 X TIP3 1
1879 TIP3_1879 11719 RESIDUE 1 Y TIP3 1
1880 TIP3_1880 11722 RESIDUE 1 Z TIP3 1
1881 TIP3_1881 11725 RESIDUE 1 A TIP3 1
1882 TIP3_1882 11728 RESIDUE 1 B TIP3 1
1883 TIP3_1883 11731 RESIDUE 1 C TIP3 1
1884 TIP3_1884 11734 RESIDUE 1 D TIP3 1
1885 TIP3_1885 11737 RESIDUE 1 E TIP3 1
1886 TIP3_1886 11740 RESIDUE 1 F TIP3 1
1887 TIP3_1887 11743 RESIDUE 1 G TIP3 1
1888 TIP3_1888 11746 RESIDUE 1 H TIP3 1
1889 TIP3_1889 11749 RESIDUE 1 I TIP3 1
1890 TIP3_1890 11752 RESIDUE 1 J TIP3 1
1891 TIP3_1891 11755 RESIDUE 1 K TIP3 1
1892 TIP3_1892 11758 RESIDUE 1 L TIP3 1
1893 TIP3_1893 11761 RESIDUE 1 M TIP3 1
1894 TIP3_1894 11764 RESIDUE 1 N TIP3 1
1895 TIP3_1895 11767 RESIDUE 1 O TIP3 1
1896 TIP3_1896 11770 RESIDUE 1 P TIP3 1
1897 TIP3_1897 11773 RESIDUE 1 Q TIP3 1
1898 TIP3_1898 11776 RESIDUE 1 R TIP3 1
1899 TIP3_1899 11779 RESIDUE 1 S TIP3 1
1900 TIP3_1900 11782 RESIDUE 1 T TIP3 1
1901 TIP3_1901 11785 RESIDUE 1 U TIP3 1
1902 TIP3_1902 11788 RESIDUE 1 V TIP3 1
1903 TIP3_1903 11791 RESIDUE 1 W TIP3 1
1904 TIP3_1904 11794 RESIDUE 1 X TIP3 1
1905 TIP3_1905 11797 RESIDUE 1 Y TIP3 1
1906 TIP3_1906 11800 RESIDUE 1 Z TIP3 1
1907 TIP3_1907 11803 RESIDUE 1 A TIP3 1
1908 TIP3_1908 11806 RESIDUE 1 B TIP3 1
1909 TIP3_1909 11809 RESIDUE 1 C TIP3 1
1910 TIP3_1910 11812 RESIDUE 1 D TIP3 1
1911 TIP3_1911 11815 RESIDUE 1 E TIP3 1
1912 TIP3_1912 11818 RESIDUE 1 F TIP3 1
1913 TIP3_1913 11821 RESIDUE 1 G TIP3 1
1914 TIP3_1914 11824 RESIDUE 1 H TIP3 1
1915 TIP3_1915 11827 RESIDUE 1 I TIP3 1
1916 TIP3_1916 11830 RESIDUE 1 J TIP3 1
1917 TIP3_1917 11833 RESIDUE 1 K TIP3 1
1918 TIP3_1918 11836 RESIDUE 1 L TIP3 1
1919 TIP3_1919 11839 RESIDUE 1 M TIP3 1
1920 TIP3_1920 11842 RESIDUE 1 N TIP3 1
1921 TIP3_1921 11845 RESIDUE 1 O TIP3 1
1922 TIP3_1922 11848 RESIDUE 1 P TIP3 1
1923 TIP3_1923 11851 RESIDUE 1 Q TIP3 1
1924 TIP3_1924 11854 RESIDUE 1 R TIP3 1
1925 TIP3_1925 11857 RESIDUE 1 S TIP3 1
1926 TIP3_1926 11860 RESIDUE 1 T TIP3 1
1927 TIP3_1927 11863 RESIDUE 1 U TIP3 1
1928 TIP3_1928 11866 RESIDUE 1 V TIP3 1
1929 TIP3_1929 11869 RESIDUE 1 W TIP3 1
1930 TIP3_1930 11872 RESIDUE 1 X TIP3 1
1931 TIP3_1931 11875 RESIDUE 1 Y TIP3 1
1932 TIP3_1932 11878 RESIDUE 1 Z TIP3 1
1933 TIP3_1933 11881 RESIDUE 1 A TIP3 1
1934 TIP3_1934 11884 RESIDUE 1 B TIP3 1
1935 TIP3_1935 11887 RESIDUE 1 C TIP3 1
1936 TIP3_1936 11890 RESIDUE 1 D TIP3 1
1937 TIP3_1937 11893 RESIDUE 1 E TIP3 1
1938 TIP3_1938 11896 RESIDUE 1 F TIP3 1
1939 TIP3_1939 11899 RESIDUE 1 G TIP3 1
1940 TIP3_1940 11902 RESIDUE 1 H TIP3 1
1941 TIP3_1941 11905 RESIDUE 1 I TIP3 1
1942 TIP3_1942 11908 RESIDUE 1 J TIP3 1
1943 TIP3_1943 11911 RESIDUE 1 K TIP3 1
1944 TIP3_1944 11914 RESIDUE 1 L TIP3 1
1945 TIP3_1945 11917 RESIDUE 1 M TIP3 1
1946 TIP3_1946 11920 RESIDUE 1 N TIP3 1
1947 TIP3_1947 11923 RESIDUE 1 O TIP3 1
1948 TIP3_1948 11926 RESIDUE 1 P TIP3 1
1949 TIP3_1949 11929 RESIDUE 1 Q TIP3 1
1950 TIP3_1950 11932 RESIDUE 1 R TIP3 1
1951 TIP3_1951 11935 RESIDUE 1 S TIP3 1
1952 TIP3_1952 11938 RESIDUE 1 T TIP3 1
1953 TIP3_1953 11941 RESIDUE 1 U TIP3 1
1954 TIP3_1954 11944 RESIDUE 1 V TIP3 1
1955 TIP3_1955 11947 RESIDUE 1 W TIP3 1
1956 TIP3_1956 11950 RESIDUE 1 X TIP3 1
1957 TIP3_1957 11953 RESIDUE 1 Y TIP3 1
1958 TIP3_1958 11956 RESIDUE 1 Z TIP3 1
1959 TIP3_1959 11959 RESIDUE 1 A TIP3 1
1960 TIP3_1960 11962 RESIDUE 1 B TIP3 1
1961 TIP3_1961 11965 RESIDUE 1 C TIP3 1
1962 TIP3_1962 11968 RESIDUE 1 D TIP3 1
1963 TIP3_1963 11971 RESIDUE 1 E TIP3 1
1964 TIP3_1964 11974 RESIDUE 1 F TIP3 1
1965 TIP3_1965 11977 RESIDUE 1 G TIP3 1
1966 TIP3_1966 11980 RESIDUE 1 H TIP3 1
1967 TIP3_1967 11983 RESIDUE 1 I TIP3 1
1968 TIP3_1968 11986 RESIDUE 1 J TIP3 1
1969 TIP3_1969 11989 RESIDUE 1 K TIP3 1
1970 TIP3_1970 11992 RESIDUE 1 L TIP3 1
1971 TIP3_1971 11995 RESIDUE 1 M TIP3 1
1972 TIP3_1972 11998 RESIDUE 1 N TIP3 1
1973 TIP3_1973 12001 RESIDUE 1 O TIP3 1
1974 TIP3_1974 12004 RESIDUE 1 P TIP3 1
1975 TIP3_1975 12007 RESIDUE 1 Q TIP3 1
1976 TIP3_1976 12010 RESIDUE 1 R TIP3 1
1977 TIP3_1977 12013 RESIDUE 1 S TIP3 1
1978 TIP3_1978 12016 RESIDUE 1 T TIP3 1
1979 TIP3_1979 12019 RESIDUE 1 U TIP3 1
1980 TIP3_1980 12022 RESIDUE 1 V TIP3 1
1981 TIP3_1981 12025 RESIDUE 1 W TIP3 1
1982 TIP3_1982 12028 RESIDUE 1 X TIP3 1
1983 TIP3_1983 12031 RESIDUE 1 Y TIP3 1
1984 TIP3_1984 12034 RESIDUE 1 Z TIP3 1
1985 TIP3_1985 12037 RESIDUE 1 A TIP3 1
1986 TIP3_1986 12040 RESIDUE 1 B TIP3 1
1987 TIP3_1987 12043 RESIDUE 1 C TIP3 1
1988 TIP3_1988 12046 RESIDUE 1 D TIP3 1
1989 TIP3_1989 12049 RESIDUE 1 E TIP3 1
1990 TIP3_1990 12052 RESIDUE 1 F TIP3 1
1991 TIP3_1991 12055 RESIDUE 1 G TIP3 1
1992 TIP3_1992 12058 RESIDUE 1 H TIP3 1
1993 TIP3_1993 12061 RESIDUE 1 I TIP3 1
1994 TIP3_1994 12064 RESIDUE 1 J TIP3 1
1995 TIP3_1995 12067 RESIDUE 1 K TIP3 1
1996 TIP3_1996 12070 RESIDUE 1 L TIP3 1
1997 TIP3_1997 12073 RESIDUE 1 M TIP3 1
1998 TIP3_1998 12076 RESIDUE 1 N TIP3 1
1999 TIP3_1999 12079 RESIDUE 1 O TIP3 1
2000 TIP3_2000 12082 RESIDUE 1 P TIP3 1
2001 TIP3_2001 12085 RESIDUE 1 Q TIP3 1
2002 TIP3_2002 12088 RESIDUE 1 R TIP3 1
2003 TIP3_2003 12091 RESIDUE 1 S TIP3 1
2004 TIP3_2004 12094 RESIDUE 1 T TIP3 1
2005 TIP3_2005 12097 RESIDUE 1 U TIP3 1
2006 TIP3_2006 12100 RESIDUE 1 V TIP3 1
2007 TIP3_2007 12103 RESIDUE 1 W TIP3 1
2008 TIP3_2008 12106 RESIDUE 1 X TIP3 1
2009 TIP3_2009 12109 RESIDUE 1 Y TIP3 1
2010 TIP3_2010 12112 RESIDUE 1 Z TIP3 1
2011 TIP3_2011 12115 RESIDUE 1 A TIP3 1
2012 TIP3_2012 12118 RESIDUE 1 B TIP3 1
2013 TIP3_2013 12121 RESIDUE 1 C TIP3 1
2014 TIP3_2014 12124 RESIDUE 1 D TIP3 1
2015 TIP3_2015 12127 RESIDUE 1 E TIP3 1
2016 TIP3_2016 12130 RESIDUE 1 F TIP3 1
2017 TIP3_2017 12133 RESIDUE 1 G TIP3 1
2018 TIP3_2018 12136 RESIDUE 1 H TIP3 1
2019 TIP3_2019 12139 RESIDUE 1 I TIP3 1
2020 TIP3_2020 12142 RESIDUE 1 J TIP3 1
2021 TIP3_2021 12145 RESIDUE 1 K TIP3 1
2022 TIP3_2022 12148 RESIDUE 1 L TIP3 1
2023 TIP3_2023 12151 RESIDUE 1 M TIP3 1
2024 TIP3_2024 12154 RESIDUE 1 N TIP3 1
2025 TIP3_2025 12157 RESIDUE 1 O TIP3 1
2026 TIP3_2026 12160 RESIDUE 1 P TIP3 1
2027 TIP3_2027 12163 RESIDUE 1 Q TIP3 1
2028 TIP3_2028 12166 RESIDUE 1 R TIP3 1
2029 TIP3_2029 12169 RESIDUE 1 S TIP3 1
2030 TIP3_2030 12172 RESIDUE 1 T TIP3 1
2031 TIP3_2031 12175 RESIDUE 1 U TIP3 1
2032 TIP3_2032 12178 RESIDUE 1 V TIP3 1
2033 TIP3_2033 12181 RESIDUE 1 W TIP3 1
2034 TIP3_2034 12184 RESIDUE 1 X TIP3 1
2035 TIP3_2035 12187 RESIDUE 1 Y TIP3 1
2036 TIP3_2036 12190 RESIDUE 1 Z TIP3 1
2037 TIP3_2037 12193 RESIDUE 1 A TIP3 1
2038 TIP3_2038 12196 RESIDUE 1 B TIP3 1
2039 TIP3_2039 12199 RESIDUE 1 C TIP3 1
2040 TIP3_2040 12202 RESIDUE 1 D TIP3 1
2041 TIP3_2041 12205 RESIDUE 1 E TIP3 1
2042 TIP3_2042 12208 RESIDUE 1 F TIP3 1
2043 TIP3_2043 12211 RESIDUE 1 G TIP3 1
2044 TIP3_2044 12214 RESIDUE 1 H TIP3 1
2045 TIP3_2045 12217 RESIDUE 1 I TIP3 1
2046 TIP3_2046 12220 RESIDUE 1 J TIP3 1
2047 TIP3_2047 12223 RESIDUE 1 K TIP3 1
2048 TIP3_2048 12226 RESIDUE 1 L TIP3 1
2049 TIP3_2049 12229 RESIDUE 1 M TIP3 1
2050 TIP3_2050 12232 RESIDUE 1 N TIP3 1
2051 TIP3_2051 12235 RESIDUE 1 O TIP3 1
2052 TIP3_2052 12238 RESIDUE 1 P TIP3 1
2053 TIP3_2053 12241 RESIDUE 1 Q TIP3 1
2054 TIP3_2054 12244 RESIDUE 1 R TIP3 1
2055 TIP3_2055 12247 RESIDUE 1 S TIP3 1
2056 TIP3_2056 12250 RESIDUE 1 T TIP3 1
2057 TIP3_2057 12253 RESIDUE 1 U TIP3 1
2058 TIP3_2058 12256 RESIDUE 1 V TIP3 1
2059 TIP3_2059 12259 RESIDUE 1 W TIP3 1
2060 TIP3_2060 12262 RESIDUE 1 X TIP3 1
2061 TIP3_2061 12265 RESIDUE 1 Y TIP3 1
2062 TIP3_2062 12268 RESIDUE 1 Z TIP3 1
2063 TIP3_2063 12271 RESIDUE 1 A TIP3 1
2064 TIP3_2064 12274 RESIDUE 1 B TIP3 1
2065 TIP3_2065 12277 RESIDUE 1 C TIP3 1
2066 TIP3_2066 12280 RESIDUE 1 D TIP3 1
2067 TIP3_2067 12283 RESIDUE 1 E TIP3 1
2068 TIP3_2068 12286 RESIDUE 1 F TIP3 1
2069 TIP3_2069 12289 RESIDUE 1 G TIP3 1
2070 TIP3_2070 12292 RESIDUE 1 H TIP3 1
2071 TIP3_2071 12295 RESIDUE 1 I TIP3 1
2072 TIP3_2072 12298 RESIDUE 1 J TIP3 1
2073 TIP3_2073 12301 RESIDUE 1 K TIP3 1
2074 TIP3_2074 12304 RESIDUE 1 L TIP3 1
2075 TIP3_2075 12307 RESIDUE 1 M TIP3 1
2076 TIP3_2076 12310 RESIDUE 1 N TIP3 1
2077 TIP3_2077 12313 RESIDUE 1 O TIP3 1
2078 TIP3_2078 12316 RESIDUE 1 P TIP3 1
2079 TIP3_2079 12319 RESIDUE 1 Q TIP3 1
2080 TIP3_2080 12322 RESIDUE 1 R TIP3 1
2081 TIP3_2081 12325 RESIDUE 1 S TIP3 1
2082 TIP3_2082 12328 RESIDUE 1 T TIP3 1
2083 TIP3_2083 12331 RESIDUE 1 U TIP3 1
2084 TIP3_2084 12334 RESIDUE 1 V TIP3 1
2085 TIP3_2085 12337 RESIDUE 1 W TIP3 1
2086 TIP3_2086 12340 RESIDUE 1 X TIP3 1
2087 TIP3_2087 12343 RESIDUE 1 Y TIP3 1
2088 TIP3_2088 12346 RESIDUE 1 Z TIP3 1
2089 TIP3_2089 12349 RESIDUE 1 A TIP3 1
2090 TIP3_2090 12352 RESIDUE 1 B TIP3 1
2091 TIP3_2091 12355 RESIDUE 1 C TIP3 1
2092 TIP3_2092 12358 RESIDUE 1 D TIP3 1
2093 TIP3_2093 12361 RESIDUE 1 E TIP3 1
2094 TIP3_2094 12364 RESIDUE 1 F TIP3 1
2095 TIP3_2095 12367 RESIDUE 1 G TIP3 1
2096 TIP3_2096 12370 RESIDUE 1 H TIP3 1
2097 TIP3_2097 12373 RESIDUE 1 I TIP3 1
2098 TIP3_2098 12376 RESIDUE 1 J TIP3 1
2099 TIP3_2099 12379 RESIDUE 1 K TIP3 1
2100 TIP3_2100 12382 RESIDUE 1 L TIP3 1
2101 TIP3_2101 12385 RESIDUE 1 M TIP3 1
2102 TIP3_2102 12388 RESIDUE 1 N TIP3 1
2103 TIP3_2103 12391 RESIDUE 1 O TIP3 1
2104 TIP3_2104 12394 RESIDUE 1 P TIP3 1
2105 TIP3_2105 12397 RESIDUE 1 Q TIP3 1
2106 TIP3_2106 12400 RESIDUE 1 R TIP3 1
2107 TIP3_2107 12403 RESIDUE 1 S TIP3 1
2108 TIP3_2108 12406 RESIDUE 1 T TIP3 1
2109 TIP3_2109 12409 RESIDUE 1 U TIP3 1
2110 TIP3_2110 12412 RESIDUE 1 V TIP3 1
2111 TIP3_2111 12415 RESIDUE 1 W TIP3 1
2112 TIP3_2112 12418 RESIDUE 1 X TIP3 1
2113 TIP3_2113 12421 RESIDUE 1 Y TIP3 1
2114 TIP3_2114 12424 RESIDUE 1 Z TIP3 1
2115 TIP3_2115 12427 RESIDUE 1 A TIP3 1
2116 TIP3_2116 12430 RESIDUE 1 B TIP3 1
2117 TIP3_2117 12433 RESIDUE 1 C TIP3 1
2118 TIP3_2118 12436 RESIDUE 1 D TIP3 1
2119 TIP3_2119 12439 RESIDUE 1 E TIP3 1
2120 TIP3_2120 12442 RESIDUE 1 F TIP3 1
2121 TIP3_2121 12445 RESIDUE 1 G TIP3 1
2122 TIP3_2122 12448 RESIDUE 1 H TIP3 1
2123 TIP3_2123 12451 RESIDUE 1 I TIP3 1
2124 TIP3_2124 12454 RESIDUE 1 J TIP3 1
2125 TIP3_2125 12457 RESIDUE 1 K TIP3 1
2126 TIP3_2126 12460 RESIDUE 1 L TIP3 1
2127 TIP3_2127 12463 RESIDUE 1 M TIP3 1
2128 TIP3_2128 12466 RESIDUE 1 N TIP3 1
2129 TIP3_2129 12469 RESIDUE 1 O TIP3 1
2130 TIP3_2130 12472 RESIDUE 1 P TIP3 1
2131 TIP3_2131 12475 RESIDUE 1 Q TIP3 1
2132 TIP3_2132 12478 RESIDUE 1 R TIP3 1
2133 TIP3_2133 12481 RESIDUE 1 S TIP3 1
2134 TIP3_2134 12484 RESIDUE 1 T TIP3 1
2135 TIP3_2135 12487 RESIDUE 1 U TIP3 1
2136 TIP3_2136 12490 RESIDUE 1 V TIP3 1
2137 TIP3_2137 12493 RESIDUE 1 W TIP3 1
2138 TIP3_2138 12496 RESIDUE 1 X TIP3 1
2139 TIP3_2139 12499 RESIDUE 1 Y TIP3 1
2140 TIP3_2140 12502 RESIDUE 1 Z TIP3 1
2141 TIP3_2141 12505 RESIDUE 1 A TIP3 1
2142 TIP3_2142 12508 RESIDUE 1 B TIP3 1
2143 TIP3_2143 12511 RESIDUE 1 C TIP3 1
2144 TIP3_2144 12514 RESIDUE 1 D TIP3 1
2145 TIP3_2145 12517 RESIDUE 1 E TIP3 1
2146 TIP3_2146 12520 RESIDUE 1 F TIP3 1
2147 TIP3_2147 12523 RESIDUE 1 G TIP3 1
2148 TIP3_2148 12526 RESIDUE 1 H TIP3 1
2149 TIP3_2149 12529 RESIDUE 1 I TIP3 1
2150 TIP3_2150 12532 RESIDUE 1 J TIP3 1
2151 TIP3_2151 12535 RESIDUE 1 K TIP3 1
2152 TIP3_2152 12538 RESIDUE 1 L TIP3 1
2153 TIP3_2153 12541 RESIDUE 1 M TIP3 1
2154 TIP3_2154 12544 RESIDUE 1 N TIP3 1
2155 TIP3_2155 12547 RESIDUE 1 O TIP3 1
2156 TIP3_2156 12550 RESIDUE 1 P TIP3 1
2157 TIP3_2157 12553 RESIDUE 1 Q TIP3 1
2158 TIP3_2158 12556 RESIDUE 1 R TIP3 1
2159 TIP3_2159 12559 RESIDUE 1 S TIP3 1
2160 TIP3_2160 12562 RESIDUE 1 T TIP3 1
2161 TIP3_2161 12565 RESIDUE 1 U TIP3 1
2162 TIP3_2162 12568 RESIDUE 1 V TIP3 1
2163 TIP3_2163 12571 RESIDUE 1 W TIP3 1
2164 TIP3_2164 12574 RESIDUE 1 X TIP3 1
2165 TIP3_2165 12577 RESIDUE 1 Y TIP3 1
2166 TIP3_2166 12580 RESIDUE 1 Z TIP3 1
2167 TIP3_2167 12583 RESIDUE 1 A TIP3 1
2168 TIP3_2168 12586 RESIDUE 1 B TIP3 1
2169 TIP3_2169 12589 RESIDUE 1 C TIP3 1
2170 TIP3_2170 12592 RESIDUE 1 D TIP3 1
2171 TIP3_2171 12595 RESIDUE 1 E TIP3 1
2172 TIP3_2172 12598 RESIDUE 1 F TIP3 1
2173 TIP3_2173 12601 RESIDUE 1 G TIP3 1
2174 TIP3_2174 12604 RESIDUE 1 H TIP3 1
2175 TIP3_2175 12607 RESIDUE 1 I TIP3 1
2176 TIP3_2176 12610 RESIDUE 1 J TIP3 1
2177 TIP3_2177 12613 RESIDUE 1 K TIP3 1
2178 TIP3_2178 12616 RESIDUE 1 L TIP3 1
2179 TIP3_2179 12619 RESIDUE 1 M TIP3 1
2180 TIP3_2180 12622 RESIDUE 1 N TIP3 1
2181 TIP3_2181 12625 RESIDUE 1 O TIP3 1
2182 TIP3_2182 12628 RESIDUE 1 P TIP3 1
2183 TIP3_2183 12631 RESIDUE 1 Q TIP3 1
2184 TIP3_2184 12634 RESIDUE 1 R TIP3 1
2185 TIP3_2185 12637 RESIDUE 1 S TIP3 1
2186 TIP3_2186 12640 RESIDUE 1 T TIP3 1
2187 TIP3_2187 12643 RESIDUE 1 U TIP3 1
2188 TIP3_2188 12646 RESIDUE 1 V TIP3 1
2189 TIP3_2189 12649 RESIDUE 1 W TIP3 1
2190 TIP3_2190 12652 RESIDUE 1 X TIP3 1
2191 TIP3_2191 12655 RESIDUE 1 Y TIP3 1
2192 TIP3_2192 12658 RESIDUE 1 Z TIP3 1
2193 TIP3_2193 12661 RESIDUE 1 A TIP3 1
2194 TIP3_2194 12664 RESIDUE 1 B TIP3 1
2195 TIP3_2195 12667 RESIDUE 1 C TIP3 1
2196 TIP3_2196 12670 RESIDUE 1 D TIP3 1
2197 TIP3_2197 12673 RESIDUE 1 E TIP3 1
2198 TIP3_2198 12676 RESIDUE 1 F TIP3 1
2199 TIP3_2199 12679 RESIDUE 1 G TIP3 1
2200 TIP3_2200 12682 RESIDUE 1 H TIP3 1
2201 TIP3_2201 12685 RESIDUE 1 I TIP3 1
2202 TIP3_2202 12688 RESIDUE 1 J TIP3 1
2203 TIP3_2203 12691 RESIDUE 1 K TIP3 1
2204 TIP3_2204 12694 RESIDUE 1 L TIP3 1
2205 TIP3_2205 12697 RESIDUE 1 M TIP3 1
2206 TIP3_2206 12700 RESIDUE 1 N TIP3 1
2207 TIP3_2207 12703 RESIDUE 1 O TIP3 1
2208 TIP3_2208 12706 RESIDUE 1 P TIP3 1
2209 TIP3_2209 12709 RESIDUE 1 Q TIP3 1
2210 TIP3_2210 12712 RESIDUE 1 R TIP3 1
2211 TIP3_2211 12715 RESIDUE 1 S TIP3 1
2212 TIP3_2212 12718 RESIDUE 1 T TIP3 1
2213 TIP3_2213 12721 RESIDUE 1 U TIP3 1
2214 TIP3_2214 12724 RESIDUE 1 V TIP3 1
2215 TIP3_2215 12727 RESIDUE 1 W TIP3 1
2216 TIP3_2216 12730 RESIDUE 1 X TIP3 1
2217 TIP3_2217 12733 RESIDUE 1 Y TIP3 1
2218 TIP3_2218 12736 RESIDUE 1 Z TIP3 1
2219 TIP3_2219 12739 RESIDUE 1 A TIP3 1
2220 TIP3_2220 12742 RESIDUE 1 B TIP3 1
2221 TIP3_2221 12745 RESIDUE 1 C TIP3 1
2222 TIP3_2222 12748 RESIDUE 1 D TIP3 1
2223 TIP3_2223 12751 RESIDUE 1 E TIP3 1
2224 TIP3_2224 12754 RESIDUE 1 F TIP3 1
2225 TIP3_2225 12757 RESIDUE 1 G TIP3 1
2226 TIP3_2226 12760 RESIDUE 1 H TIP3 1
2227 TIP3_2227 12763 RESIDUE 1 I TIP3 1
2228 TIP3_2228 12766 RESIDUE 1 J TIP3 1
2229 TIP3_2229 12769 RESIDUE 1 K TIP3 1
2230 TIP3_2230 12772 RESIDUE 1 L TIP3 1
2231 TIP3_2231 12775 RESIDUE 1 M TIP3 1
2232 TIP3_2232 12778 RESIDUE 1 N TIP3 1
2233 TIP3_2233 12781 RESIDUE 1 O TIP3 1
2234 TIP3_2234 12784 RESIDUE 1 P TIP3 1
2235 TIP3_2235 12787 RESIDUE 1 Q TIP3 1
2236 TIP3_2236 12790 RESIDUE 1 R TIP3 1
2237 TIP3_2237 12793 RESIDUE 1 S TIP3 1
2238 TIP3_2238 12796 RESIDUE 1 T TIP3 1
2239 TIP3_2239 12799 RESIDUE 1 U TIP3 1
2240 TIP3_2240 12802 RESIDUE 1 V TIP3 1
2241 TIP3_2241 12805 RESIDUE 1 W TIP3 1
2242 TIP3_2242 12808 RESIDUE 1 X TIP3 1
2243 TIP3_2243 12811 RESIDUE 1 Y TIP3 1
2244 TIP3_2244 12814 RESIDUE 1 Z TIP3 1
2245 TIP3_2245 12817 RESIDUE 1 A TIP3 1
2246 TIP3_2246 12820 RESIDUE 1 B TIP3 1
2247 TIP3_2247 12823 RESIDUE 1 C TIP3 1
2248 TIP3_2248 12826 RESIDUE 1 D TIP3 1
2249 TIP3_2249 12829 RESIDUE 1 E TIP3 1
2250 TIP3_2250 12832 RESIDUE 1 F TIP3 1
2251 TIP3_2251 12835 RESIDUE 1 G TIP3 1
2252 TIP3_2252 12838 RESIDUE 1 H TIP3 1
2253 TIP3_2253 12841 RESIDUE 1 I TIP3 1
2254 TIP3_2254 12844 RESIDUE 1 J TIP3 1
2255 TIP3_2255 12847 RESIDUE 1 K TIP3 1
2256 TIP3_2256 12850 RESIDUE 1 L TIP3 1
2257 TIP3_2257 12853 RESIDUE 1 M TIP3 1
2258 TIP3_2258 12856 RESIDUE 1 N TIP3 1
2259 TIP3_2259 12859 RESIDUE 1 O TIP3 1
2260 TIP3_2260 12862 RESIDUE 1 P TIP3 1
2261 TIP3_2261 12865 RESIDUE 1 Q TIP3 1
2262 TIP3_2262 12868 RESIDUE 1 R TIP3 1
2263 TIP3_2263 12871 RESIDUE 1 S TIP3 1
2264 TIP3_2264 12874 RESIDUE 1 T TIP3 1
2265 TIP3_2265 12877 RESIDUE 1 U TIP3 1
2266 TIP3_2266 12880 RESIDUE 1 V TIP3 1
2267 TIP3_2267 12883 RESIDUE 1 W TIP3 1
2268 TIP3_2268 12886 RESIDUE 1 X TIP3 1
2269 TIP3_2269 12889 RESIDUE 1 Y TIP3 1
2270 TIP3_2270 12892 RESIDUE 1 Z TIP3 1
2271 TIP3_2271 12895 RESIDUE 1 A TIP3 1
2272 TIP3_2272 12898 RESIDUE 1 B TIP3 1
2273 TIP3_2273 12901 RESIDUE 1 C TIP3 1
2274 TIP3_2274 12904 RESIDUE 1 D TIP3 1
2275 TIP3_2275 12907 RESIDUE 1 E TIP3 1
2276 TIP3_2276 12910 RESIDUE 1 F TIP3 1
2277 TIP3_2277 12913 RESIDUE 1 G TIP3 1
2278 TIP3_2278 12916 RESIDUE 1 H TIP3 1
2279 TIP3_2279 12919 RESIDUE 1 I TIP3 1
2280 TIP3_2280 12922 RESIDUE 1 J TIP3 1
2281 TIP3_2281 12925 RESIDUE 1 K TIP3 1
2282 TIP3_2282 12928 RESIDUE 1 L TIP3 1
2283 TIP3_2283 12931 RESIDUE 1 M TIP3 1
2284 TIP3_2284 12934 RESIDUE 1 N TIP3 1
2285 TIP3_2285 12937 RESIDUE 1 O TIP3 1
2286 TIP3_2286 12940 RESIDUE 1 P TIP3 1
2287 TIP3_2287 12943 RESIDUE 1 Q TIP3 1
2288 TIP3_2288 12946 RESIDUE 1 R TIP3 1
2289 TIP3_2289 12949 RESIDUE 1 S TIP3 1
2290 TIP3_2290 12952 RESIDUE 1 T TIP3 1
2291 TIP3_2291 12955 RESIDUE 1 U TIP3 1
2292 TIP3_2292 12958 RESIDUE 1 V TIP3 1
2293 TIP3_2293 12961 RESIDUE 1 W TIP3 1
2294 TIP3_2294 12964 RESIDUE 1 X TIP3 1
2295 TIP3_2295 12967 RESIDUE 1 Y TIP3 1
2296 TIP3_2296 12970 RESIDUE 1 Z TIP3 1
2297 TIP3_2297 12973 RESIDUE 1 A TIP3 1
2298 TIP3_2298 12976 RESIDUE 1 B TIP3 1
2299 TIP3_2299 12979 RESIDUE 1 C TIP3 1
2300 TIP3_2300 12982 RESIDUE 1 D TIP3 1
2301 TIP3_2301 12985 RESIDUE 1 E TIP3 1
2302 TIP3_2302 12988 RESIDUE 1 F TIP3 1
2303 TIP3_2303 12991 RESIDUE 1 G TIP3 1
2304 TIP3_2304 12994 RESIDUE 1 H TIP3 1
2305 TIP3_2305 12997 RESIDUE 1 I TIP3 1
2306 TIP3_2306 13000 RESIDUE 1 J TIP3 1
2307 TIP3_2307 13003 RESIDUE 1 K TIP3 1
2308 TIP3_2308 13006 RESIDUE 1 L TIP3 1
2309 TIP3_2309 13009 RESIDUE 1 M TIP3 1
2310 TIP3_2310 13012 RESIDUE 1 N TIP3 1
2311 TIP3_2311 13015 RESIDUE 1 O TIP3 1
2312 TIP3_2312 13018 RESIDUE 1 P TIP3 1
2313 TIP3_2313 13021 RESIDUE 1 Q TIP3 1
2314 TIP3_2314 13024 RESIDUE 1 R TIP3 1
2315 TIP3_2315 13027 RESIDUE 1 S TIP3 1
2316 TIP3_2316 13030 RESIDUE 1 T TIP3 1
2317 TIP3_2317 13033 RESIDUE 1 U TIP3 1
2318 TIP3_2318 13036 RESIDUE 1 V TIP3 1
2319 TIP3_2319 13039 RESIDUE 1 W TIP3 1
2320 TIP3_2320 13042 RESIDUE 1 X TIP3 1
2321 TIP3_2321 13045 RESIDUE 1 Y TIP3 1
2322 TIP3_2322 13048 RESIDUE 1 Z TIP3 1
2323 TIP3_2323 13051 RESIDUE 1 A TIP3 1
2324 TIP3_2324 13054 RESIDUE 1 B TIP3 1
2325 TIP3_2325 13057 RESIDUE 1 C TIP3 1
2326 TIP3_2326 13060 RESIDUE 1 D TIP3 1
2327 TIP3_2327 13063 RESIDUE 1 E TIP3 1
2328 TIP3_2328 13066 RESIDUE 1 F TIP3 1
2329 TIP3_2329 13069 RESIDUE 1 G TIP3 1
2330 TIP3_2330 13072 RESIDUE 1 H TIP3 1
2331 TIP3_2331 13075 RESIDUE 1 I TIP3 1
2332 TIP3_2332 13078 RESIDUE 1 J TIP3 1
2333 TIP3_2333 13081 RESIDUE 1 K TIP3 1
2334 TIP3_2334 13084 RESIDUE 1 L TIP3 1
2335 TIP3_2335 13087 RESIDUE 1 M TIP3 1
2336 TIP3_2336 13090 RESIDUE 1 N TIP3 1
2337 TIP3_2337 13093 RESIDUE 1 O TIP3 1
2338 TIP3_2338 13096 RESIDUE 1 P TIP3 1
2339 TIP3_2339 13099 RESIDUE 1 Q TIP3 1
2340 TIP3_2340 13102 RESIDUE 1 R TIP3 1
2341 TIP3_2341 13105 RESIDUE 1 S TIP3 1
2342 TIP3_2342 13108 RESIDUE 1 T TIP3 1
2343 TIP3_2343 13111 RESIDUE 1 U TIP3 1
2344 TIP3_2344 13114 RESIDUE 1 V TIP3 1
2345 TIP3_2345 13117 RESIDUE 1 W TIP3 1
2346 TIP3_2346 13120 RESIDUE 1 X TIP3 1
2347 TIP3_2347 13123 RESIDUE 1 Y TIP3 1
2348 TIP3_2348 13126 RESIDUE 1 Z TIP3 1
2349 TIP3_2349 13129 RESIDUE 1 A TIP3 1
2350 TIP3_2350 13132 RESIDUE 1 B TIP3 1
2351 TIP3_2351 13135 RESIDUE 1 C TIP3 1
2352 TIP3_2352 13138 RESIDUE 1 D TIP3 1
2353 TIP3_2353 13141 RESIDUE 1 E TIP3 1
2354 TIP3_2354 13144 RESIDUE 1 F TIP3 1
2355 TIP3_2355 13147 RESIDUE 1 G TIP3 1
2356 TIP3_2356 13150 RESIDUE 1 H TIP3 1
2357 TIP3_2357 13153 RESIDUE 1 I TIP3 1
2358 TIP3_2358 13156 RESIDUE 1 J TIP3 1
2359 TIP3_2359 13159 RESIDUE 1 K TIP3 1
2360 TIP3_2360 13162 RESIDUE 1 L TIP3 1
2361 TIP3_2361 13165 RESIDUE 1 M TIP3 1
2362 TIP3_2362 13168 RESIDUE 1 N TIP3 1
2363 TIP3_2363 13171 RESIDUE 1 O TIP3 1
2364 TIP3_2364 13174 RESIDUE 1 P TIP3 1
2365 TIP3_2365 13177 RESIDUE 1 Q TIP3 1
2366 TIP3_2366 13180 RESIDUE 1 R TIP3 1
2367 TIP3_2367 13183 RESIDUE 1 S TIP3 1
2368 TIP3_2368 13186 RESIDUE 1 T TIP3 1
2369 TIP3_2369 13189 RESIDUE 1 U TIP3 1
2370 TIP3_2370 13192 RESIDUE 1 V TIP3 1
2371 TIP3_2371 13195 RESIDUE 1 W TIP3 1
2372 TIP3_2372 13198 RESIDUE 1 X TIP3 1
2373 TIP3_2373 13201 RESIDUE 1 Y TIP3 1
2374 TIP3_2374 13204 RESIDUE 1 Z TIP3 1
2375 TIP3_2375 13207 RESIDUE 1 A TIP3 1
2376 TIP3_2376 13210 RESIDUE 1 B TIP3 1
2377 TIP3_2377 13213 RESIDUE 1 C TIP3 1
2378 TIP3_2378 13216 RESIDUE 1 D TIP3 1
2379 TIP3_2379 13219 RESIDUE 1 E TIP3 1
2380 TIP3_2380 13222 RESIDUE 1 F TIP3 1
2381 TIP3_2381 13225 RESIDUE 1 G TIP3 1
2382 TIP3_2382 13228 RESIDUE 1 H TIP3 1
2383 TIP3_2383 13231 RESIDUE 1 I TIP3 1
2384 TIP3_2384 13234 RESIDUE 1 J TIP3 1
2385 TIP3_2385 13237 RESIDUE 1 K TIP3 1
2386 TIP3_2386 13240 RESIDUE 1 L TIP3 1
2387 TIP3_2387 13243 RESIDUE 1 M TIP3 1
2388 TIP3_2388 13246 RESIDUE 1 N TIP3 1
2389 TIP3_2389 13249 RESIDUE 1 O TIP3 1
2390 TIP3_2390 13252 RESIDUE 1 P TIP3 1
2391 TIP3_2391 13255 RESIDUE 1 Q TIP3 1
2392 TIP3_2392 13258 RESIDUE 1 R TIP3 1
2393 TIP3_2393 13261 RESIDUE 1 S TIP3 1
2394 TIP3_2394 13264 RESIDUE 1 T TIP3 1
2395 TIP3_2395 13267 RESIDUE 1 U TIP3 1
2396 TIP3_2396 13270 RESIDUE 1 V TIP3 1
2397 TIP3_2397 13273 RESIDUE 1 W TIP3 1
2398 TIP3_2398 13276 RESIDUE 1 X TIP3 1
2399 TIP3_2399 13279 RESIDUE 1 Y TIP3 1
2400 TIP3_2400 13282 RESIDUE 1 Z TIP3 1
2401 TIP3_2401 13285 RESIDUE 1 A TIP3 1
2402 TIP3_2402 13288 RESIDUE 1 B TIP3 1
2403 TIP3_2403 13291 RESIDUE 1 C TIP3 1
2404 TIP3_2404 13294 RESIDUE 1 D TIP3 1
2405 TIP3_2405 13297 RESIDUE 1 E TIP3 1
2406 TIP3_2406 13300 RESIDUE 1 F TIP3 1
2407 TIP3_2407 13303 RESIDUE 1 G TIP3 1
2408 TIP3_2408 13306 RESIDUE 1 H TIP3 1
2409 TIP3_2409 13309 RESIDUE 1 I TIP3 1
2410 TIP3_2410 13312 RESIDUE 1 J TIP3 1
2411 TIP3_2411 13315 RESIDUE 1 K TIP3 1
2412 TIP3_2412 13318 RESIDUE 1 L TIP3 1
2413 TIP3_2413 13321 RESIDUE 1 M TIP3 1
2414 TIP3_2414 13324 RESIDUE 1 N TIP3 1
2415 TIP3_2415 13327 RESIDUE 1 O TIP3 1
2416 TIP3_2416 13330 RESIDUE 1 P TIP3 1
2417 TIP3_2417 13333 RESIDUE 1 Q TIP3 1
2418 TIP3_2418 13336 RESIDUE 1 R TIP3 1
2419 TIP3_2419 13339 RESIDUE 1 S TIP3 1
2420 TIP3_2420 13342 RESIDUE 1 T TIP3 1
2421 TIP3_2421 13345 RESIDUE 1 U TIP3 1
2422 TIP3_2422 13348 RESIDUE 1 V TIP3 1
2423 TIP3_2423 13351 RESIDUE 1 W TIP3 1
2424 TIP3_2424 13354 RESIDUE 1 X TIP3 1
2425 TIP3_2425 13357 RESIDUE 1 Y TIP3 1
2426 TIP3_2426 13360 RESIDUE 1 Z TIP3 1
2427 TIP3_2427 13363 RESIDUE 1 A TIP3 1
2428 TIP3_2428 13366 RESIDUE 1 B TIP3 1
2429 TIP3_2429 13369 RESIDUE 1 C TIP3 1
2430 TIP3_2430 13372 RESIDUE 1 D TIP3 1
2431 TIP3_2431 13375 RESIDUE 1 E TIP3 1
2432 TIP3_2432 13378 RESIDUE 1 F TIP3 1
2433 TIP3_2433 13381 RESIDUE 1 G TIP3 1
2434 TIP3_2434 13384 RESIDUE 1 H TIP3 1
2435 TIP3_2435 13387 RESIDUE 1 I TIP3 1
2436 TIP3_2436 13390 RESIDUE 1 J TIP3 1
2437 TIP3_2437 13393 RESIDUE 1 K TIP3 1
2438 TIP3_2438 13396 RESIDUE 1 L TIP3 1
2439 TIP3_2439 13399 RESIDUE 1 M TIP3 1
2440 TIP3_2440 13402 RESIDUE 1 N TIP3 1
2441 TIP3_2441 13405 RESIDUE 1 O TIP3 1
2442 TIP3_2442 13408 RESIDUE 1 P TIP3 1
2443 TIP3_2443 13411 RESIDUE 1 Q TIP3 1
2444 TIP3_2444 13414 RESIDUE 1 R TIP3 1
2445 TIP3_2445 13417 RESIDUE 1 S TIP3 1
2446 TIP3_2446 13420 RESIDUE 1 T TIP3 1
2447 TIP3_2447 13423 RESIDUE 1 U TIP3 1
2448 TIP3_2448 13426 RESIDUE 1 V TIP3 1
2449 TIP3_2449 13429 RESIDUE 1 W TIP3 1
2450 TIP3_2450 13432 RESIDUE 1 X TIP3 1
2451 TIP3_2451 13435 RESIDUE 1 Y TIP3 1
2452 TIP3_2452 13438 RESIDUE 1 Z TIP3 1
2453 TIP3_2453 13441 RESIDUE 1 A TIP3 1
2454 TIP3_2454 13444 RESIDUE 1 B TIP3 1
2455 TIP3_2455 13447 RESIDUE 1 C TIP3 1
2456 TIP3_2456 13450 RESIDUE 1 D TIP3 1
2457 TIP3_2457 13453 RESIDUE 1 E TIP3 1
2458 TIP3_2458 13456 RESIDUE 1 F TIP3 1
2459 TIP3_2459 13459 RESIDUE 1 G TIP3 1
2460 TIP3_2460 13462 RESIDUE 1 H TIP3 1
2461 TIP3_2461 13465 RESIDUE 1 I TIP3 1
2462 TIP3_2462 13468 RESIDUE 1 J TIP3 1
2463 TIP3_2463 13471 RESIDUE 1 K TIP3 1
2464 TIP3_2464 13474 RESIDUE 1 L TIP3 1
2465 TIP3_2465 13477 RESIDUE 1 M TIP3 1
2466 TIP3_2466 13480 RESIDUE 1 N TIP3 1
2467 TIP3_2467 13483 RESIDUE 1 O TIP3 1
2468 TIP3_2468 13486 RESIDUE 1 P TIP3 1
2469 TIP3_2469 13489 RESIDUE 1 Q TIP3 1
2470 TIP3_2470 13492 RESIDUE 1 R TIP3 1
2471 TIP3_2471 13495 RESIDUE 1 S TIP3 1
2472 TIP3_2472 13498 RESIDUE 1 T TIP3 1
2473 TIP3_2473 13501 RESIDUE 1 U TIP3 1
2474 TIP3_2474 13504 RESIDUE 1 V TIP3 1
2475 TIP3_2475 13507 RESIDUE 1 W TIP3 1
2476 TIP3_2476 13510 RESIDUE 1 X TIP3 1
2477 TIP3_2477 13513 RESIDUE 1 Y TIP3 1
2478 TIP3_2478 13516 RESIDUE 1 Z TIP3 1
2479 TIP3_2479 13519 RESIDUE 1 A TIP3 1
2480 TIP3_2480 13522 RESIDUE 1 B TIP3 1
2481 TIP3_2481 13525 RESIDUE 1 C TIP3 1
2482 TIP3_2482 13528 RESIDUE 1 D TIP3 1
2483 TIP3_2483 13531 RESIDUE 1 E TIP3 1
2484 TIP3_2484 13534 RESIDUE 1 F TIP3 1
2485 TIP3_2485 13537 RESIDUE 1 G TIP3 1
2486 TIP3_2486 13540 RESIDUE 1 H TIP3 1
2487 TIP3_2487 13543 RESIDUE 1 I TIP3 1
2488 TIP3_2488 13546 RESIDUE 1 J TIP3 1
2489 TIP3_2489 13549 RESIDUE 1 K TIP3 1
2490 TIP3_2490 13552 RESIDUE 1 L TIP3 1
2491 TIP3_2491 13555 RESIDUE 1 M TIP3 1
2492 TIP3_2492 13558 RESIDUE 1 N TIP3 1
2493 TIP3_2493 13561 RESIDUE 1 O TIP3 1
2494 TIP3_2494 13564 RESIDUE 1 P TIP3 1
2495 TIP3_2495 13567 RESIDUE 1 Q TIP3 1
2496 TIP3_2496 13570 RESIDUE 1 R TIP3 1
2497 TIP3_2497 13573 RESIDUE 1 S TIP3 1
2498 TIP3_2498 13576 RESIDUE 1 T TIP3 1
2499 TIP3_2499 13579 RESIDUE 1 U TIP3 1
2500 TIP3_2500 13582 RESIDUE 1 V TIP3 1
2501 TIP3_2501 13585 RESIDUE 1 W TIP3 1
2502 TIP3_2502 13588 RESIDUE 1 X TIP3 1
2503 TIP3_2503 13591 RESIDUE 1 Y TIP3 1
2504 TIP3_2504 13594 RESIDUE 1 Z TIP3 1
2505 TIP3_2505 13597 RESIDUE 1 A TIP3 1
2506 TIP3_2506 13600 RESIDUE 1 B TIP3 1
2507 TIP3_2507 13603 RESIDUE 1 C TIP3 1
2508 TIP3_2508 13606 RESIDUE 1 D TIP3 1
2509 TIP3_2509 13609 RESIDUE 1 E TIP3 1
2510 TIP3_2510 13612 RESIDUE 1 F TIP3 1
2511 TIP3_2511 13615 RESIDUE 1 G TIP3 1
2512 TIP3_2512 13618 RESIDUE 1 H TIP3 1
2513 TIP3_2513 13621 RESIDUE 1 I TIP3 1
2514 TIP3_2514 13624 RESIDUE 1 J TIP3 1
2515 TIP3_2515 13627 RESIDUE 1 K TIP3 1
2516 TIP3_2516 13630 RESIDUE 1 L TIP3 1
2517 TIP3_2517 13633 RESIDUE 1 M TIP3 1
2518 TIP3_2518 13636 RESIDUE 1 N TIP3 1
2519 TIP3_2519 13639 RESIDUE 1 O TIP3 1
2520 TIP3_2520 13642 RESIDUE 1 P TIP3 1
2521 TIP3_2521 13645 RESIDUE 1 Q TIP3 1
2522 TIP3_2522 13648 RESIDUE 1 R TIP3 1
2523 TIP3_2523 13651 RESIDUE 1 S TIP3 1
2524 TIP3_2524 13654 RESIDUE 1 T TIP3 1
2525 TIP3_2525 13657 RESIDUE 1 U TIP3 1
2526 TIP3_2526 13660 RESIDUE 1 V TIP3 1
2527 TIP3_2527 13663 RESIDUE 1 W TIP3 1
2528 TIP3_2528 13666 RESIDUE 1 X TIP3 1
2529 TIP3_2529 13669 RESIDUE 1 Y TIP3 1
2530 TIP3_2530 13672 RESIDUE 1 Z TIP3 1
2531 TIP3_2531 13675 RESIDUE 1 A TIP3 1
2532 TIP3_2532 13678 RESIDUE 1 B TIP3 1
2533 TIP3_2533 13681 RESIDUE 1 C TIP3 1
2534 TIP3_2534 13684 RESIDUE 1 D TIP3 1
2535 TIP3_2535 13687 RESIDUE 1 E TIP3 1
2536 TIP3_2536 13690 RESIDUE 1 F TIP3 1
2537 TIP3_2537 13693 RESIDUE 1 G TIP3 1
2538 TIP3_2538 13696 RESIDUE 1 H TIP3 1
2539 TIP3_2539 13699 RESIDUE 1 I TIP3 1
2540 TIP3_2540 13702 RESIDUE 1 J TIP3 1
2541 TIP3_2541 13705 RESIDUE 1 K TIP3 1
2542 TIP3_2542 13708 RESIDUE 1 L TIP3 1
2543 TIP3_2543 13711 RESIDUE 1 M TIP3 1
2544 TIP3_2544 13714 RESIDUE 1 N TIP3 1
2545 TIP3_2545 13717 RESIDUE 1 O TIP3 1
2546 TIP3_2546 13720 RESIDUE 1 P TIP3 1
2547 TIP3_2547 13723 RESIDUE 1 Q TIP3 1
2548 TIP3_2548 13726 RESIDUE 1 R TIP3 1
2549 TIP3_2549 13729 RESIDUE 1 S TIP3 1
2550 TIP3_2550 13732 RESIDUE 1 T TIP3 1
2551 TIP3_2551 13735 RESIDUE 1 U TIP3 1
2552 TIP3_2552 13738 RESIDUE 1 V TIP3 1
2553 TIP3_2553 13741 RESIDUE 1 W TIP3 1
2554 TIP3_2554 13744 RESIDUE 1 X TIP3 1
2555 TIP3_2555 13747 RESIDUE 1 Y TIP3 1
2556 TIP3_2556 13750 RESIDUE 1 Z TIP3 1
2557 TIP3_2557 13753 RESIDUE 1 A TIP3 1
2558 TIP3_2558 13756 RESIDUE 1 B TIP3 1
2559 TIP3_2559 13759 RESIDUE 1 C TIP3 1
2560 TIP3_2560 13762 RESIDUE 1 D TIP3 1
2561 TIP3_2561 13765 RESIDUE 1 E TIP3 1
2562 TIP3_2562 13768 RESIDUE 1 F TIP3 1
2563 TIP3_2563 13771 RESIDUE 1 G TIP3 1
2564 TIP3_2564 13774 RESIDUE 1 H TIP3 1
2565 TIP3_2565 13777 RESIDUE 1 I TIP3 1
2566 TIP3_2566 13780 RESIDUE 1 J TIP3 1
2567 TIP3_2567 13783 RESIDUE 1 K TIP3 1
2568 TIP3_2568 13786 RESIDUE 1 L TIP3 1
2569 TIP3_2569 13789 RESIDUE 1 M TIP3 1
2570 TIP3_2570 13792 RESIDUE 1 N TIP3 1
2571 TIP3_2571 13795 RESIDUE 1 O TIP3 1
2572 TIP3_2572 13798 RESIDUE 1 P TIP3 1
2573 TIP3_2573 13801 RESIDUE 1 Q TIP3 1
2574 TIP3_2574 13804 RESIDUE 1 R TIP3 1
2575 TIP3_2575 13807 RESIDUE 1 S TIP3 1
2576 TIP3_2576 13810 RESIDUE 1 T TIP3 1
2577 TIP3_2577 13813 RESIDUE 1 U TIP3 1
2578 TIP3_2578 13816 RESIDUE 1 V TIP3 1
2579 TIP3_2579 13819 RESIDUE 1 W TIP3 1
2580 TIP3_2580 13822 RESIDUE 1 X TIP3 1
2581 TIP3_2581 13825 RESIDUE 1 Y TIP3 1
2582 TIP3_2582 13828 RESIDUE 1 Z TIP3 1
2583 TIP3_2583 13831 RESIDUE 1 A TIP3 1
2584 TIP3_2584 13834 RESIDUE 1 B TIP3 1
2585 TIP3_2585 13837 RESIDUE 1 C TIP3 1
2586 TIP3_2586 13840 RESIDUE 1 D TIP3 1
2587 TIP3_2587 13843 RESIDUE 1 E TIP3 1
2588 TIP3_2588 13846 RESIDUE 1 F TIP3 1
2589 TIP3_2589 13849 RESIDUE 1 G TIP3 1
2590 TIP3_2590 13852 RESIDUE 1 H TIP3 1
2591 TIP3_2591 13855 RESIDUE 1 I TIP3 1
2592 TIP3_2592 13858 RESIDUE 1 J TIP3 1
2593 TIP3_2593 13861 RESIDUE 1 K TIP3 1
2594 TIP3_2594 13864 RESIDUE 1 L TIP3 1
2595 TIP3_2595 13867 RESIDUE 1 M TIP3 1
2596 TIP3_2596 13870 RESIDUE 1 N TIP3 1
2597 TIP3_2597 13873 RESIDUE 1 O TIP3 1
2598 TIP3_2598 13876 RESIDUE 1 P TIP3 1
2599 TIP3_2599 13879 RESIDUE 1 Q TIP3 1
2600 TIP3_2600 13882 RESIDUE 1 R TIP3 1
2601 TIP3_2601 13885 RESIDUE 1 S TIP3 1
2602 TIP3_2602 13888 RESIDUE 1 T TIP3 1
2603 TIP3_2603 13891 RESIDUE 1 U TIP3 1
2604 TIP3_2604 13894 RESIDUE 1 V TIP3 1
2605 TIP3_2605 13897 RESIDUE 1 W TIP3 1
2606 TIP3_2606 13900 RESIDUE 1 X TIP3 1
2607 TIP3_2607 13903 RESIDUE 1 Y TIP3 1
2608 TIP3_2608 13906 RESIDUE 1 Z TIP3 1
2609 TIP3_2609 13909 RESIDUE 1 A TIP3 1
2610 TIP3_2610 13912 RESIDUE 1 B TIP3 1
2611 TIP3_2611 13915 RESIDUE 1 C TIP3 1
2612 TIP3_2612 13918 RESIDUE 1 D TIP3 1
2613 TIP3_2613 13921 RESIDUE 1 E TIP3 1
2614 TIP3_2614 13924 RESIDUE 1 F TIP3 1
2615 TIP3_2615 13927 RESIDUE 1 G TIP3 1
2616 TIP3_2616 13930 RESIDUE 1 H TIP3 1
2617 TIP3_2617 13933 RESIDUE 1 I TIP3 1
2618 TIP3_2618 13936 RESIDUE 1 J TIP3 1
2619 TIP3_2619 13939 RESIDUE 1 K TIP3 1
2620 TIP3_2620 13942 RESIDUE 1 L TIP3 1
2621 TIP3_2621 13945 RESIDUE 1 M TIP3 1
2622 TIP3_2622 13948 RESIDUE 1 N TIP3 1
2623 TIP3_2623 13951 RESIDUE 1 O TIP3 1
2624 TIP3_2624 13954 RESIDUE 1 P TIP3 1
2625 TIP3_2625 13957 RESIDUE 1 Q TIP3 1
2626 TIP3_2626 13960 RESIDUE 1 R TIP3 1
2627 TIP3_2627 13963 RESIDUE 1 S TIP3 1
2628 TIP3_2628 13966 RESIDUE 1 T TIP3 1
2629 TIP3_2629 13969 RESIDUE 1 U TIP3 1
2630 TIP3_2630 13972 RESIDUE 1 V TIP3 1
2631 TIP3_2631 13975 RESIDUE 1 W TIP3 1
2632 TIP3_2632 13978 RESIDUE 1 X TIP3 1
2633 TIP3_2633 13981 RESIDUE 1 Y TIP3 1
2634 TIP3_2634 13984 RESIDUE 1 Z TIP3 1
2635 TIP3_2635 13987 RESIDUE 1 A TIP3 1
2636 TIP3_2636 13990 RESIDUE 1 B TIP3 1
2637 TIP3_2637 13993 RESIDUE 1 C TIP3 1
2638 TIP3_2638 13996 RESIDUE 1 D TIP3 1
2639 TIP3_2639 13999 RESIDUE 1 E TIP3 1
2640 TIP3_2640 14002 RESIDUE 1 F TIP3 1
2641 TIP3_2641 14005 RESIDUE 1 G TIP3 1
2642 TIP3_2642 14008 RESIDUE 1 H TIP3 1
2643 TIP3_2643 14011 RESIDUE 1 I TIP3 1
2644 TIP3_2644 14014 RESIDUE 1 J TIP3 1
2645 TIP3_2645 14017 RESIDUE 1 K TIP3 1
2646 TIP3_2646 14020 RESIDUE 1 L TIP3 1
2647 TIP3_2647 14023 RESIDUE 1 M TIP3 1
2648 TIP3_2648 14026 RESIDUE 1 N TIP3 1
2649 TIP3_2649 14029 RESIDUE 1 O TIP3 1
2650 TIP3_2650 14032 RESIDUE 1 P TIP3 1
2651 TIP3_2651 14035 RESIDUE 1 Q TIP3 1
2652 TIP3_2652 14038 RESIDUE 1 R TIP3 1
2653 TIP3_2653 14041 RESIDUE 1 S TIP3 1
2654 TIP3_2654 14044 RESIDUE 1 T TIP3 1
2655 TIP3_2655 14047 RESIDUE 1 U TIP3 1
2656 TIP3_2656 14050 RESIDUE 1 V TIP3 1
2657 TIP3_2657 14053 RESIDUE 1 W TIP3 1
2658 TIP3_2658 14056 RESIDUE 1 X TIP3 1
2659 TIP3_2659 14059 RESIDUE 1 Y TIP3 1
2660 TIP3_2660 14062 RESIDUE 1 Z TIP3 1
2661 TIP3_2661 14065 RESIDUE 1 A TIP3 1
2662 TIP3_2662 14068 RESIDUE 1 B TIP3 1
2663 TIP3_2663 14071 RESIDUE 1 C TIP3 1
2664 TIP3_2664 14074 RESIDUE 1 D TIP3 1
2665 TIP3_2665 14077 RESIDUE 1 E TIP3 1
2666 TIP3_2666 14080 RESIDUE 1 F TIP3 1
2667 TIP3_2667 14083 RESIDUE 1 G TIP3 1
2668 TIP3_2668 14086 RESIDUE 1 H TIP3 1
2669 TIP3_2669 14089 RESIDUE 1 I TIP3 1
2670 TIP3_2670 14092 RESIDUE 1 J TIP3 1
2671 TIP3_2671 14095 RESIDUE 1 K TIP3 1
2672 TIP3_2672 14098 RESIDUE 1 L TIP3 1
2673 TIP3_2673 14101 RESIDUE 1 M TIP3 1
2674 TIP3_2674 14104 RESIDUE 1 N TIP3 1
2675 TIP3_2675 14107 RESIDUE 1 O TIP3 1
2676 TIP3_2676 14110 RESIDUE 1 P TIP3 1
2677 TIP3_2677 14113 RESIDUE 1 Q TIP3 1
2678 TIP3_2678 14116 RESIDUE 1 R TIP3 1
2679 TIP3_2679 14119 RESIDUE 1 S TIP3 1
2680 TIP3_2680 14122 RESIDUE 1 T TIP3 1
2681 TIP3_2681 14125 RESIDUE 1 U TIP3 1
2682 TIP3_2682 14128 RESIDUE 1 V TIP3 1
2683 TIP3_2683 14131 RESIDUE 1 W TIP3 1
2684 TIP3_2684 14134 RESIDUE 1 X TIP3 1
2685 TIP3_2685 14137 RESIDUE 1 Y TIP3 1
2686 TIP3_2686 14140 RESIDUE 1 Z TIP3 1
2687 TIP3_2687 14143 RESIDUE 1 A TIP3 1
2688 TIP3_2688 14146 RESIDUE 1 B TIP3 1
2689 TIP3_2689 14149 RESIDUE 1 C TIP3 1
2690 TIP3_2690 14152 RESIDUE 1 D TIP3 1
2691 TIP3_2691 14155 RESIDUE 1 E TIP3 1
2692 TIP3_2692 14158 RESIDUE 1 F TIP3 1
2693 TIP3_2693 14161 RESIDUE 1 G TIP3 1
2694 TIP3_2694 14164 RESIDUE 1 H TIP3 1
2695 TIP3_2695 14167 RESIDUE 1 I TIP3 1
2696 TIP3_2696 14170 RESIDUE 1 J TIP3 1
2697 TIP3_2697 14173 RESIDUE 1 K TIP3 1
2698 TIP3_2698 14176 RESIDUE 1 L TIP3 1
2699 TIP3_2699 14179 RESIDUE 1 M TIP3 1
2700 TIP3_2700 14182 RESIDUE 1 N TIP3 1
2701 TIP3_2701 14185 RESIDUE 1 O TIP3 1
2702 TIP3_2702 14188 RESIDUE 1 P TIP3 1
2703 TIP3_2703 14191 RESIDUE 1 Q TIP3 1
2704 TIP3_2704 14194 RESIDUE 1 R TIP3 1
2705 TIP3_2705 14197 RESIDUE 1 S TIP3 1
2706 TIP3_2706 14200 RESIDUE 1 T TIP3 1
2707 TIP3_2707 14203 RESIDUE 1 U TIP3 1
2708 TIP3_2708 14206 RESIDUE 1 V TIP3 1
2709 TIP3_2709 14209 RESIDUE 1 W TIP3 1
2710 TIP3_2710 14212 RESIDUE 1 X TIP3 1
2711 TIP3_2711 14215 RESIDUE 1 Y TIP3 1
2712 TIP3_2712 14218 RESIDUE 1 Z TIP3 1
2713 TIP3_2713 14221 RESIDUE 1 A TIP3 1
2714 TIP3_2714 14224 RESIDUE 1 B TIP3 1
2715 TIP3_2715 14227 RESIDUE 1 C TIP3 1
2716 TIP3_2716 14230 RESIDUE 1 D TIP3 1
2717 TIP3_2717 14233 RESIDUE 1 E TIP3 1
2718 TIP3_2718 14236 RESIDUE 1 F TIP3 1
2719 TIP3_2719 14239 RESIDUE 1 G TIP3 1
2720 TIP3_2720 14242 RESIDUE 1 H TIP3 1
2721 TIP3_2721 14245 RESIDUE 1 I TIP3 1
2722 TIP3_2722 14248 RESIDUE 1 J TIP3 1
2723 TIP3_2723 14251 RESIDUE 1 K TIP3 1
2724 TIP3_2724 14254 RESIDUE 1 L TIP3 1
2725 TIP3_2725 14257 RESIDUE 1 M TIP3 1
2726 TIP3_2726 14260 RESIDUE 1 N TIP3 1
2727 TIP3_2727 14263 RESIDUE 1 O TIP3 1
2728 TIP3_2728 14266 RESIDUE 1 P TIP3 1
2729 TIP3_2729 14269 RESIDUE 1 Q TIP3 1
2730 TIP3_2730 14272 RESIDUE 1 R TIP3 1
2731 TIP3_2731 14275 RESIDUE 1 S TIP3 1
2732 TIP3_2732 14278 RESIDUE 1 T TIP3 1
2733 TIP3_2733 14281 RESIDUE 1 U TIP3 1
2734 TIP3_2734 14284 RESIDUE 1 V TIP3 1
2735 TIP3_2735 14287 RESIDUE 1 W TIP3 1
2736 TIP3_2736 14290 RESIDUE 1 X TIP3 1
2737 TIP3_2737 14293 RESIDUE 1 Y TIP3 1
2738 TIP3_2738 14296 RESIDUE 1 Z TIP3 1
2739 TIP3_2739 14299 RESIDUE 1 A TIP3 1
2740 TIP3_2740 14302 RESIDUE 1 B TIP3 1
2741 TIP3_2741 14305 RESIDUE 1 C TIP3 1
2742 TIP3_2742 14308 RESIDUE 1 D TIP3 1
2743 TIP3_2743 14311 RESIDUE 1 E TIP3 1
2744 TIP3_2744 14314 RESIDUE 1 F TIP3 1
2745 TIP3_2745 14317 RESIDUE 1 G TIP3 1
2746 TIP3_2746 14320 RESIDUE 1 H TIP3 1
2747 TIP3_2747 14323 RESIDUE 1 I TIP3 1
2748 TIP3_2748 14326 RESIDUE 1 J TIP3 1
2749 TIP3_2749 14329 RESIDUE 1 K TIP3 1
2750 TIP3_2750 14332 RESIDUE 1 L TIP3 1
2751 TIP3_2751 14335 RESIDUE 1 M TIP3 1
2752 TIP3_2752 14338 RESIDUE 1 N TIP3 1
2753 TIP3_2753 14341 RESIDUE 1 O TIP3 1
2754 TIP3_2754 14344 RESIDUE 1 P TIP3 1
2755 TIP3_2755 14347 RESIDUE 1 Q TIP3 1
2756 TIP3_2756 14350 RESIDUE 1 R TIP3 1
2757 TIP3_2757 14353 RESIDUE 1 S TIP3 1
2758 TIP3_2758 14356 RESIDUE 1 T TIP3 1
2759 TIP3_2759 14359 RESIDUE 1 U TIP3 1
2760 TIP3_2760 14362 RESIDUE 1 V TIP3 1
2761 TIP3_2761 14365 RESIDUE 1 W TIP3 1
2762 TIP3_2762 14368 RESIDUE 1 X TIP3 1
2763 TIP3_2763 14371 RESIDUE 1 Y TIP3 1
2764 TIP3_2764 14374 RESIDUE 1 Z TIP3 1
2765 TIP3_2765 14377 RESIDUE 1 A TIP3 1
2766 TIP3_2766 14380 RESIDUE 1 B TIP3 1
2767 TIP3_2767 14383 RESIDUE 1 C TIP3 1
2768 TIP3_2768 14386 RESIDUE 1 D TIP3 1
2769 TIP3_2769 14389 RESIDUE 1 E TIP3 1
2770 TIP3_2770 14392 RESIDUE 1 F TIP3 1
2771 TIP3_2771 14395 RESIDUE 1 G TIP3 1
2772 TIP3_2772 14398 RESIDUE 1 H TIP3 1
2773 TIP3_2773 14401 RESIDUE 1 I TIP3 1
2774 TIP3_2774 14404 RESIDUE 1 J TIP3 1
2775 TIP3_2775 14407 RESIDUE 1 K TIP3 1
2776 TIP3_2776 14410 RESIDUE 1 L TIP3 1
2777 TIP3_2777 14413 RESIDUE 1 M TIP3 1
2778 TIP3_2778 14416 RESIDUE 1 N TIP3 1
2779 TIP3_2779 14419 RESIDUE 1 O TIP3 1
2780 TIP3_2780 14422 RESIDUE 1 P TIP3 1
2781 TIP3_2781 14425 RESIDUE 1 Q TIP3 1
2782 TIP3_2782 14428 RESIDUE 1 R TIP3 1
2783 TIP3_2783 14431 RESIDUE 1 S TIP3 1
2784 TIP3_2784 14434 RESIDUE 1 T TIP3 1
2785 TIP3_2785 14437 RESIDUE 1 U TIP3 1
2786 TIP3_2786 14440 RESIDUE 1 V TIP3 1
2787 TIP3_2787 14443 RESIDUE 1 W TIP3 1
2788 TIP3_2788 14446 RESIDUE 1 X TIP3 1
2789 TIP3_2789 14449 RESIDUE 1 Y TIP3 1
2790 TIP3_2790 14452 RESIDUE 1 Z TIP3 1
2791 TIP3_2791 14455 RESIDUE 1 A TIP3 1
2792 TIP3_2792 14458 RESIDUE 1 B TIP3 1
2793 TIP3_2793 14461 RESIDUE 1 C TIP3 1
2794 TIP3_2794 14464 RESIDUE 1 D TIP3 1
2795 TIP3_2795 14467 RESIDUE 1 E TIP3 1
2796 TIP3_2796 14470 RESIDUE 1 F TIP3 1
2797 TIP3_2797 14473 RESIDUE 1 G TIP3 1
2798 TIP3_2798 14476 RESIDUE 1 H TIP3 1
2799 TIP3_2799 14479 RESIDUE 1 I TIP3 1
2800 TIP3_2800 14482 RESIDUE 1 J TIP3 1
2801 TIP3_2801 14485 RESIDUE 1 K TIP3 1
2802 TIP3_2802 14488 RESIDUE 1 L TIP3 1
2803 TIP3_2803 14491 RESIDUE 1 M TIP3 1
2804 TIP3_2804 14494 RESIDUE 1 N TIP3 1
2805 TIP3_2805 14497 RESIDUE 1 O TIP3 1
2806 TIP3_2806 14500 RESIDUE 1 P TIP3 1
2807 TIP3_2807 14503 RESIDUE 1 Q TIP3 1
2808 TIP3_2808 14506 RESIDUE 1 R TIP3 1
2809 TIP3_2809 14509 RESIDUE 1 S TIP3 1
2810 TIP3_2810 14512 RESIDUE 1 T TIP3 1
2811 TIP3_2811 14515 RESIDUE 1 U TIP3 1
2812 TIP3_2812 14518 RESIDUE 1 V TIP3 1
2813 TIP3_2813 14521 RESIDUE 1 W TIP3 1
2814 TIP3_2814 14524 RESIDUE 1 X TIP3 1
2815 TIP3_2815 14527 RESIDUE 1 Y TIP3 1
2816 TIP3_2816 14530 RESIDUE 1 Z TIP3 1
2817 TIP3_2817 14533 RESIDUE 1 A TIP3 1
2818 TIP3_2818 14536 RESIDUE 1 B TIP3 1
2819 TIP3_2819 14539 RESIDUE 1 C TIP3 1
2820 TIP3_2820 14542 RESIDUE 1 D TIP3 1
2821 TIP3_2821 14545 RESIDUE 1 E TIP3 1
2822 TIP3_2822 14548 RESIDUE 1 F TIP3 1
2823 TIP3_2823 14551 RESIDUE 1 G TIP3 1
2824 TIP3_2824 14554 RESIDUE 1 H TIP3 1
2825 TIP3_2825 14557 RESIDUE 1 I TIP3 1
2826 TIP3_2826 14560 RESIDUE 1 J TIP3 1
2827 TIP3_2827 14563 RESIDUE 1 K TIP3 1
2828 TIP3_2828 14566 RESIDUE 1 L TIP3 1
2829 TIP3_2829 14569 RESIDUE 1 M TIP3 1
2830 TIP3_2830 14572 RESIDUE 1 N TIP3 1
2831 TIP3_2831 14575 RESIDUE 1 O TIP3 1
2832 TIP3_2832 14578 RESIDUE 1 P TIP3 1
2833 TIP3_2833 14581 RESIDUE 1 Q TIP3 1
2834 TIP3_2834 14584 RESIDUE 1 R TIP3 1
2835 TIP3_2835 14587 RESIDUE 1 S TIP3 1
2836 TIP3_2836 14590 RESIDUE 1 T TIP3 1
2837 TIP3_2837 14593 RESIDUE 1 U TIP3 1
2838 TIP3_2838 14596 RESIDUE 1 V TIP3 1
2839 TIP3_2839 14599 RESIDUE 1 W TIP3 1
2840 TIP3_2840 14602 RESIDUE 1 X TIP3 1
2841 TIP3_2841 14605 RESIDUE 1 Y TIP3 1
2842 TIP3_2842 14608 RESIDUE 1 Z TIP3 1
2843 TIP3_2843 14611 RESIDUE 1 A TIP3 1
2844 TIP3_2844 14614 RESIDUE 1 B TIP3 1
2845 TIP3_2845 14617 RESIDUE 1 C TIP3 1
2846 TIP3_2846 14620 RESIDUE 1 D TIP3 1
2847 TIP3_2847 14623 RESIDUE 1 E TIP3 1
2848 TIP3_2848 14626 RESIDUE 1 F TIP3 1
2849 TIP3_2849 14629 RESIDUE 1 G TIP3 1
2850 TIP3_2850 14632 RESIDUE 1 H TIP3 1
2851 TIP3_2851 14635 RESIDUE 1 I TIP3 1
2852 TIP3_2852 14638 RESIDUE 1 J TIP3 1
2853 TIP3_2853 14641 RESIDUE 1 K TIP3 1
2854 TIP3_2854 14644 RESIDUE 1 L TIP3 1
2855 TIP3_2855 14647 RESIDUE 1 M TIP3 1
2856 TIP3_2856 14650 RESIDUE 1 N TIP3 1
2857 TIP3_2857 14653 RESIDUE 1 O TIP3 1
2858 TIP3_2858 14656 RESIDUE 1 P TIP3 1
2859 TIP3_2859 14659 RESIDUE 1 Q TIP3 1
2860 TIP3_2860 14662 RESIDUE 1 R TIP3 1
2861 TIP3_2861 14665 RESIDUE 1 S TIP3 1
2862 TIP3_2862 14668 RESIDUE 1 T TIP3 1
2863 TIP3_2863 14671 RESIDUE 1 U TIP3 1
2864 TIP3_2864 14674 RESIDUE 1 V TIP3 1
2865 TIP3_2865 14677 RESIDUE 1 W TIP3 1
2866 TIP3_2866 14680 RESIDUE 1 X TIP3 1
2867 TIP3_2867 14683 RESIDUE 1 Y TIP3 1
2868 TIP3_2868 14686 RESIDUE 1 Z TIP3 1
2869 TIP3_2869 14689 RESIDUE 1 A TIP3 1
2870 TIP3_2870 14692 RESIDUE 1 B TIP3 1
2871 TIP3_2871 14695 RESIDUE 1 C TIP3 1
2872 TIP3_2872 14698 RESIDUE 1 D TIP3 1
2873 TIP3_2873 14701 RESIDUE 1 E TIP3 1
2874 TIP3_2874 14704 RESIDUE 1 F TIP3 1
2875 TIP3_2875 14707 RESIDUE 1 G TIP3 1
2876 TIP3_2876 14710 RESIDUE 1 H TIP3 1
2877 TIP3_2877 14713 RESIDUE 1 I TIP3 1
2878 TIP3_2878 14716 RESIDUE 1 J TIP3 1
2879 TIP3_2879 14719 RESIDUE 1 K TIP3 1
2880 TIP3_2880 14722 RESIDUE 1 L TIP3 1
2881 TIP3_2881 14725 RESIDUE 1 M TIP3 1
2882 TIP3_2882 14728 RESIDUE 1 N TIP3 1
2883 TIP3_2883 14731 RESIDUE 1 O TIP3 1
2884 TIP3_2884 14734 RESIDUE 1 P TIP3 1
2885 TIP3_2885 14737 RESIDUE 1 Q TIP3 1
2886 TIP3_2886 14740 RESIDUE 1 R TIP3 1
2887 TIP3_2887 14743 RESIDUE 1 S TIP3 1
2888 TIP3_2888 14746 RESIDUE 1 T TIP3 1
2889 TIP3_2889 14749 RESIDUE 1 U TIP3 1
2890 TIP3_2890 14752 RESIDUE 1 V TIP3 1
2891 TIP3_2891 14755 RESIDUE 1 W TIP3 1
2892 TIP3_2892 14758 RESIDUE 1 X TIP3 1
2893 TIP3_2893 14761 RESIDUE 1 Y TIP3 1
2894 TIP3_2894 14764 RESIDUE 1 Z TIP3 1
2895 TIP3_2895 14767 RESIDUE 1 A TIP3 1
2896 TIP3_2896 14770 RESIDUE 1 B TIP3 1
2897 TIP3_2897 14773 RESIDUE 1 C TIP3 1
2898 TIP3_2898 14776 RESIDUE 1 D TIP3 1
2899 TIP3_2899 14779 RESIDUE 1 E TIP3 1
2900 TIP3_2900 14782 RESIDUE 1 F TIP3 1
2901 TIP3_2901 14785 RESIDUE 1 G TIP3 1
2902 TIP3_2902 14788 RESIDUE 1 H TIP3 1
2903 TIP3_2903 14791 RESIDUE 1 I TIP3 1
2904 TIP3_2904 14794 RESIDUE 1 J TIP3 1
2905 TIP3_2905 14797 RESIDUE 1 K TIP3 1
2906 TIP3_2906 14800 RESIDUE 1 L TIP3 1
2907 TIP3_2907 14803 RESIDUE 1 M TIP3 1
2908 TIP3_2908 14806 RESIDUE 1 N TIP3 1
2909 TIP3_2909 14809 RESIDUE 1 O TIP3 1
2910 TIP3_2910 14812 RESIDUE 1 P TIP3 1
2911 TIP3_2911 14815 RESIDUE 1 Q TIP3 1
2912 TIP3_2912 14818 RESIDUE 1 R TIP3 1
2913 TIP3_2913 14821 RESIDUE 1 S TIP3 1
2914 TIP3_2914 14824 RESIDUE 1 T TIP3 1
2915 TIP3_2915 14827 RESIDUE 1 U TIP3 1
2916 TIP3_2916 14830 RESIDUE 1 V TIP3 1
2917 TIP3_2917 14833 RESIDUE 1 W TIP3 1
2918 TIP3_2918 14836 RESIDUE 1 X TIP3 1
2919 TIP3_2919 14839 RESIDUE 1 Y TIP3 1
2920 TIP3_2920 14842 RESIDUE 1 Z TIP3 1
2921 TIP3_2921 14845 RESIDUE 1 A TIP3 1
2922 TIP3_2922 14848 RESIDUE 1 B TIP3 1
2923 TIP3_2923 14851 RESIDUE 1 C TIP3 1
2924 TIP3_2924 14854 RESIDUE 1 D TIP3 1
2925 TIP3_2925 14857 RESIDUE 1 E TIP3 1
2926 TIP3_2926 14860 RESIDUE 1 F TIP3 1
2927 TIP3_2927 14863 RESIDUE 1 G TIP3 1
2928 TIP3_2928 14866 RESIDUE 1 H TIP3 1
2929 TIP3_2929 14869 RESIDUE 1 I TIP3 1
2930 TIP3_2930 14872 RESIDUE 1 J TIP3 1
2931 TIP3_2931 14875 RESIDUE 1 K TIP3 1
2932 TIP3_2932 14878 RESIDUE 1 L TIP3 1
2933 TIP3_2933 14881 RESIDUE 1 M TIP3 1
2934 TIP3_2934 14884 RESIDUE 1 N TIP3 1
2935 TIP3_2935 14887 RESIDUE 1 O TIP3 1
2936 TIP3_2936 14890 RESIDUE 1 P TIP3 1
2937 TIP3_2937 14893 RESIDUE 1 Q TIP3 1
2938 TIP3_2938 14896 RESIDUE 1 R TIP3 1
2939 TIP3_2939 14899 RESIDUE 1 S TIP3 1
2940 TIP3_2940 14902 RESIDUE 1 T TIP3 1
2941 TIP3_2941 14905 RESIDUE 1 U TIP3 1
2942 TIP3_2942 14908 RESIDUE 1 V TIP3 1
2943 TIP3_2943 14911 RESIDUE 1 W TIP3 1
2944 TIP3_2944 14914 RESIDUE 1 X TIP3 1
2945 TIP3_2945 14917 RESIDUE 1 Y TIP3 1
2946 TIP3_2946 14920 RESIDUE 1 Z TIP3 1
2947 TIP3_2947 14923 RESIDUE 1 A TIP3 1
2948 TIP3_2948 14926 RESIDUE 1 B TIP3 1
2949 TIP3_2949 14929 RESIDUE 1 C TIP3 1
2950 TIP3_2950 14932 RESIDUE 1 D TIP3 1
2951 TIP3_2951 14935 RESIDUE 1 E TIP3 1
2952 TIP3_2952 14938 RESIDUE 1 F TIP3 1
2953 TIP3_2953 14941 RESIDUE 1 G TIP3 1
2954 TIP3_2954 14944 RESIDUE 1 H TIP3 1
2955 TIP3_2955 14947 RESIDUE 1 I TIP3 1
2956 TIP3_2956 14950 RESIDUE 1 J TIP3 1
2957 TIP3_2957 14953 RESIDUE 1 K TIP3 1
2958 TIP3_2958 14956 RESIDUE 1 L TIP3 1
2959 TIP3_2959 14959 RESIDUE 1 M TIP3 1
2960 TIP3_2960 14962 RESIDUE 1 N TIP3 1
2961 TIP3_2961 14965 RESIDUE 1 O TIP3 1
2962 TIP3_2962 14968 RESIDUE 1 P TIP3 1
2963 TIP3_2963 14971 RESIDUE 1 Q TIP3 1
2964 TIP3_2964 14974 RESIDUE 1 R TIP3 1
2965 TIP3_2965 14977 RESIDUE 1 S TIP3 1
2966 TIP3_2966 14980 RESIDUE 1 T TIP3 1
2967 TIP3_2967 14983 RESIDUE 1 U TIP3 1
2968 TIP3_2968 14986 RESIDUE 1 V TIP3 1
2969 TIP3_2969 14989 RESIDUE 1 W TIP3 1
2970 TIP3_2970 14992 RESIDUE 1 X TIP3 1
2971 TIP3_2971 14995 RESIDUE 1 Y TIP3 1
2972 TIP3_2972 14998 RESIDUE 1 Z TIP3 1
2973 TIP3_2973 15001 RESIDUE 1 A TIP3 1
2974 TIP3_2974 15004 RESIDUE 1 B TIP3 1
2975 TIP3_2975 15007 RESIDUE 1 C TIP3 1
2976 TIP3_2976 15010 RESIDUE 1 D TIP3 1
2977 TIP3_2977 15013 RESIDUE 1 E TIP3 1
2978 TIP3_2978 15016 RESIDUE 1 F TIP3 1
2979 TIP3_2979 15019 RESIDUE 1 G TIP3 1
2980 TIP3_2980 15022 RESIDUE 1 H TIP3 1
2981 TIP3_2981 15025 RESIDUE 1 I TIP3 1
2982 TIP3_2982 15028 RESIDUE 1 J TIP3 1
2983 TIP3_2983 15031 RESIDUE 1 K TIP3 1
2984 TIP3_2984 15034 RESIDUE 1 L TIP3 1
2985 TIP3_2985 15037 RESIDUE 1 M TIP3 1
2986 TIP3_2986 15040 RESIDUE 1 N TIP3 1
2987 TIP3_2987 15043 RESIDUE 1 O TIP3 1
2988 TIP3_2988 15046 RESIDUE 1 P TIP3 1
2989 TIP3_2989 15049 RESIDUE 1 Q TIP3 1
2990 TIP3_2990 15052 RESIDUE 1 R TIP3 1
2991 TIP3_2991 15055 RESIDUE 1 S TIP3 1
2992 TIP3_2992 15058 RESIDUE 1 T TIP3 1
2993 TIP3_2993 15061 RESIDUE 1 U TIP3 1
2994 TIP3_2994 15064 RESIDUE 1 V TIP3 1
2995 TIP3_2995 15067 RESIDUE 1 W TIP3 1
2996 TIP3_2996 15070 RESIDUE 1 X TIP3 1
2997 TIP3_2997 15073 RESIDUE 1 Y TIP3 1
2998 TIP3_2998 15076 RESIDUE 1 Z TIP3 1
2999 TIP3_2999 15079 RESIDUE 1 A TIP3 1
3000 TIP3_3000 15082 RESIDUE 1 B TIP3 1
3001 TIP3_3001 15085 RESIDUE 1 C TIP3 1
3002 TIP3_3002 15088 RESIDUE 1 D TIP3 1
3003 TIP3_3003 15091 RESIDUE 1 E TIP3 1
3004 TIP3_3004 15094 RESIDUE 1 F TIP3 1
3005 TIP3_3005 15097 RESIDUE 1 G TIP3 1
3006 TIP3_3006 15100 RESIDUE 1 H TIP3 1
3007 TIP3_3007 15103 RESIDUE 1 I TIP3 1
3008 TIP3_3008 15106 RESIDUE 1 J TIP3 1
3009 TIP3_3009 15109 RESIDUE 1 K TIP3 1
3010 TIP3_3010 15112 RESIDUE 1 L TIP3 1
3011 TIP3_3011 15115 RESIDUE 1 M TIP3 1
3012 TIP3_3012 15118 RESIDUE 1 N TIP3 1
3013 TIP3_3013 15121 RESIDUE 1 O TIP3 1
3014 TIP3_3014 15124 RESIDUE 1 P TIP3 1
3015 TIP3_3015 15127 RESIDUE 1 Q TIP3 1
3016 TIP3_3016 15130 RESIDUE 1 R TIP3 1
3017 TIP3_3017 15133 RESIDUE 1 S TIP3 1
3018 TIP3_3018 15136 RESIDUE 1 T TIP3 1
3019 TIP3_3019 15139 RESIDUE 1 U TIP3 1
3020 TIP3_3020 15142 RESIDUE 1 V TIP3 1
3021 TIP3_3021 15145 RESIDUE 1 W TIP3 1
3022 TIP3_3022 15148 RESIDUE 1 X TIP3 1
3023 TIP3_3023 15151 RESIDUE 1 Y TIP3 1
3024 TIP3_3024 15154 RESIDUE 1 Z TIP3 1
3025 TIP3_3025 15157 RESIDUE 1 A TIP3 1
3026 TIP3_3026 15160 RESIDUE 1 B TIP3 1
3027 TIP3_3027 15163 RESIDUE 1 C TIP3 1
3028 TIP3_3028 15166 RESIDUE 1 D TIP3 1
3029 TIP3_3029 15169 RESIDUE 1 E TIP3 1
3030 TIP3_3030 15172 RESIDUE 1 F TIP3 1
3031 TIP3_3031 15175 RESIDUE 1 G TIP3 1
3032 TIP3_3032 15178 RESIDUE 1 H TIP3 1
3033 TIP3_3033 15181 RESIDUE 1 I TIP3 1
3034 TIP3_3034 15184 RESIDUE 1 J TIP3 1
3035 TIP3_3035 15187 RESIDUE 1 K TIP3 1
3036 TIP3_3036 15190 RESIDUE 1 L TIP3 1
3037 TIP3_3037 15193 RESIDUE 1 M TIP3 1
3038 TIP3_3038 15196 RESIDUE 1 N TIP3 1
3039 TIP3_3039 15199 RESIDUE 1 O TIP3 1
3040 TIP3_3040 15202 RESIDUE 1 P TIP3 1
3041 TIP3_3041 15205 RESIDUE 1 Q TIP3 1
3042 TIP3_3042 15208 RESIDUE 1 R TIP3 1
3043 TIP3_3043 15211 RESIDUE 1 S TIP3 1
3044 TIP3_3044 15214 RESIDUE 1 T TIP3 1
3045 TIP3_3045 15217 RESIDUE 1 U TIP3 1
3046 TIP3_3046 15220 RESIDUE 1 V TIP3 1
3047 TIP3_3047 15223 RESIDUE 1 W TIP3 1
3048 TIP3_3048 15226 RESIDUE 1 X TIP3 1
3049 TIP3_3049 15229 RESIDUE 1 Y TIP3 1
3050 TIP3_3050 15232 RESIDUE 1 Z TIP3 1
3051 TIP3_3051 15235 RESIDUE 1 A TIP3 1
3052 TIP3_3052 15238 RESIDUE 1 B TIP3 1
3053 TIP3_3053 15241 RESIDUE 1 C TIP3 1
3054 TIP3_3054 15244 RESIDUE 1 D TIP3 1
3055 TIP3_3055 15247 RESIDUE 1 E TIP3 1
3056 TIP3_3056 15250 RESIDUE 1 F TIP3 1
3057 TIP3_3057 15253 RESIDUE 1 G TIP3 1
3058 TIP3_3058 15256 RESIDUE 1 H TIP3 1
3059 TIP3_3059 15259 RESIDUE 1 I TIP3 1
3060 TIP3_3060 15262 RESIDUE 1 J TIP3 1
3061 TIP3_3061 15265 RESIDUE 1 K TIP3 1
3062 TIP3_3062 15268 RESIDUE 1 L TIP3 1
3063 TIP3_3063 15271 RESIDUE 1 M TIP3 1
3064 TIP3_3064 15274 RESIDUE 1 N TIP3 1
3065 TIP3_3065 15277 RESIDUE 1 O TIP3 1
3066 TIP3_3066 15280 RESIDUE 1 P TIP3 1
3067 TIP3_3067 15283 RESIDUE 1 Q TIP3 1
3068 TIP3_3068 15286 RESIDUE 1 R TIP3 1
3069 TIP3_3069 15289 RESIDUE 1 S TIP3 1
3070 TIP3_3070 15292 RESIDUE 1 T TIP3 1
3071 TIP3_3071 15295 RESIDUE 1 U TIP3 1
3072 TIP3_3072 15298 RESIDUE 1 V TIP3 1
3073 TIP3_3073 15301 RESIDUE 1 W TIP3 1
3074 TIP3_3074 15304 RESIDUE 1 X TIP3 1
3075 TIP3_3075 15307 RESIDUE 1 Y TIP3 1
3076 TIP3_3076 15310 RESIDUE 1 Z TIP3 1
3077 TIP3_3077 15313 RESIDUE 1 A TIP3 1
3078 TIP3_3078 15316 RESIDUE 1 B TIP3 1
3079 TIP3_3079 15319 RESIDUE 1 C TIP3 1
3080 TIP3_3080 15322 RESIDUE 1 D TIP3 1
3081 TIP3_3081 15325 RESIDUE 1 E TIP3 1
3082 TIP3_3082 15328 RESIDUE 1 F TIP3 1
3083 TIP3_3083 15331 RESIDUE 1 G TIP3 1
3084 TIP3_3084 15334 RESIDUE 1 H TIP3 1
3085 TIP3_3085 15337 RESIDUE 1 I TIP3 1
3086 TIP3_3086 15340 RESIDUE 1 J TIP3 1
3087 TIP3_3087 15343 RESIDUE 1 K TIP3 1
3088 TIP3_3088 15346 RESIDUE 1 L TIP3 1
3089 TIP3_3089 15349 RESIDUE 1 M TIP3 1
3090 TIP3_3090 15352 RESIDUE 1 N TIP3 1
3091 TIP3_3091 15355 RESIDUE 1 O TIP3 1
3092 TIP3_3092 15358 RESIDUE 1 P TIP3 1
3093 TIP3_3093 15361 RESIDUE 1 Q TIP3 1
3094 TIP3_3094 15364 RESIDUE 1 R TIP3 1
3095 TIP3_3095 15367 RESIDUE 1 S TIP3 1
3096 TIP3_3096 15370 RESIDUE 1 T TIP3 1
3097 TIP3_3097 15373 RESIDUE 1 U TIP3 1
3098 TIP3_3098 15376 RESIDUE 1 V TIP3 1
3099 TIP3_3099 15379 RESIDUE 1 W TIP3 1
3100 TIP3_3100 15382 RESIDUE 1 X TIP3 1
3101 TIP3_3101 15385 RESIDUE 1 Y TIP3 1
3102 TIP3_3102 15388 RESIDUE 1 Z TIP3 1
3103 TIP3_3103 15391 RESIDUE 1 A TIP3 1
3104 TIP3_3104 15394 RESIDUE 1 B TIP3 1
3105 TIP3_3105 15397 RESIDUE 1 C TIP3 1
3106 TIP3_3106 15400 RESIDUE 1 D TIP3 1
3107 TIP3_3107 15403 RESIDUE 1 E TIP3 1
3108 TIP3_3108 15406 RESIDUE 1 F TIP3 1
3109 TIP3_3109 15409 RESIDUE 1 G TIP3 1
3110 TIP3_3110 15412 RESIDUE 1 H TIP3 1
3111 TIP3_3111 15415 RESIDUE 1 I TIP3 1
3112 TIP3_3112 15418 RESIDUE 1 J TIP3 1
3113 TIP3_3113 15421 RESIDUE 1 K TIP3 1
3114 TIP3_3114 15424 RESIDUE 1 L TIP3 1
3115 TIP3_3115 15427 RESIDUE 1 M TIP3 1
3116 TIP3_3116 15430 RESIDUE 1 N TIP3 1
3117 TIP3_3117 15433 RESIDUE 1 O TIP3 1
3118 TIP3_3118 15436 RESIDUE 1 P TIP3 1
3119 TIP3_3119 15439 RESIDUE 1 Q TIP3 1
3120 TIP3_3120 15442 RESIDUE 1 R TIP3 1
3121 TIP3_3121 15445 RESIDUE 1 S TIP3 1
3122 TIP3_3122 15448 RESIDUE 1 T TIP3 1
3123 TIP3_3123 15451 RESIDUE 1 U TIP3 1
3124 TIP3_3124 15454 RESIDUE 1 V TIP3 1
3125 TIP3_3125 15457 RESIDUE 1 W TIP3 1
3126 TIP3_3126 15460 RESIDUE 1 X TIP3 1
3127 TIP3_3127 15463 RESIDUE 1 Y TIP3 1
3128 TIP3_3128 15466 RESIDUE 1 Z TIP3 1
3129 TIP3_3129 15469 RESIDUE 1 A TIP3 1
3130 TIP3_3130 15472 RESIDUE 1 B TIP3 1
3131 TIP3_3131 15475 RESIDUE 1 C TIP3 1
3132 TIP3_3132 15478 RESIDUE 1 D TIP3 1
3133 TIP3_3133 15481 RESIDUE 1 E TIP3 1
3134 TIP3_3134 15484 RESIDUE 1 F TIP3 1
3135 TIP3_3135 15487 RESIDUE 1 G TIP3 1
3136 TIP3_3136 15490 RESIDUE 1 H TIP3 1
3137 TIP3_3137 15493 RESIDUE 1 I TIP3 1
3138 TIP3_3138 15496 RESIDUE 1 J TIP3 1
3139 TIP3_3139 15499 RESIDUE 1 K TIP3 1
3140 TIP3_3140 15502 RESIDUE 1 L TIP3 1
3141 TIP3_3141 15505 RESIDUE 1 M TIP3 1
3142 TIP3_3142 15508 RESIDUE 1 N TIP3 1
3143 TIP3_3143 15511 RESIDUE 1 O TIP3 1
3144 TIP3_3144 15514 RESIDUE 1 P TIP3 1
3145 TIP3_3145 15517 RESIDUE 1 Q TIP3 1
3146 TIP3_3146 15520 RESIDUE 1 R TIP3 1
3147 TIP3_3147 15523 RESIDUE 1 S TIP3 1
3148 TIP3_3148 15526 RESIDUE 1 T TIP3 1
3149 TIP3_3149 15529 RESIDUE 1 U TIP3 1
3150 TIP3_3150 15532 RESIDUE 1 V TIP3 1
3151 TIP3_3151 15535 RESIDUE 1 W TIP3 1
3152 TIP3_3152 15538 RESIDUE 1 X TIP3 1
3153 TIP3_3153 15541 RESIDUE 1 Y TIP3 1
3154 TIP3_3154 15544 RESIDUE 1 Z TIP3 1
3155 TIP3_3155 15547 RESIDUE 1 A TIP3 1
3156 TIP3_3156 15550 RESIDUE 1 B TIP3 1
3157 TIP3_3157 15553 RESIDUE 1 C TIP3 1
3158 TIP3_3158 15556 RESIDUE 1 D TIP3 1
3159 TIP3_3159 15559 RESIDUE 1 E TIP3 1
3160 TIP3_3160 15562 RESIDUE 1 F TIP3 1
3161 TIP3_3161 15565 RESIDUE 1 G TIP3 1
3162 TIP3_3162 15568 RESIDUE 1 H TIP3 1
3163 TIP3_3163 15571 RESIDUE 1 I TIP3 1
3164 TIP3_3164 15574 RESIDUE 1 J TIP3 1
3165 TIP3_3165 15577 RESIDUE 1 K TIP3 1
3166 TIP3_3166 15580 RESIDUE 1 L TIP3 1
3167 TIP3_3167 15583 RESIDUE 1 M TIP3 1
3168 TIP3_3168 15586 RESIDUE 1 N TIP3 1
3169 TIP3_3169 15589 RESIDUE 1 O TIP3 1
3170 TIP3_3170 15592 RESIDUE 1 P TIP3 1
3171 TIP3_3171 15595 RESIDUE 1 Q TIP3 1
3172 TIP3_3172 15598 RESIDUE 1 R TIP3 1
3173 TIP3_3173 15601 RESIDUE 1 S TIP3 1
3174 TIP3_3174 15604 RESIDUE 1 T TIP3 1
3175 TIP3_3175 15607 RESIDUE 1 U TIP3 1
3176 TIP3_3176 15610 RESIDUE 1 V TIP3 1
3177 TIP3_3177 15613 RESIDUE 1 W TIP3 1
3178 TIP3_3178 15616 RESIDUE 1 X TIP3 1
3179 TIP3_3179 15619 RESIDUE 1 Y TIP3 1
3180 TIP3_3180 15622 RESIDUE 1 Z TIP3 1
3181 TIP3_3181 15625 RESIDUE 1 A TIP3 1
3182 TIP3_3182 15628 RESIDUE 1 B TIP3 1
3183 TIP3_3183 15631 RESIDUE 1 C TIP3 1
3184 TIP3_3184 15634 RESIDUE 1 D TIP3 1
3185 TIP3_3185 15637 RESIDUE 1 E TIP3 1
3186 TIP3_3186 15640 RESIDUE 1 F TIP3 1
3187 TIP3_3187 15643 RESIDUE 1 G TIP3 1
3188 TIP3_3188 15646 RESIDUE 1 H TIP3 1
3189 TIP3_3189 15649 RESIDUE 1 I TIP3 1
3190 TIP3_3190 15652 RESIDUE 1 J TIP3 1
3191 TIP3_3191 15655 RESIDUE 1 K TIP3 1
3192 TIP3_3192 15658 RESIDUE 1 L TIP3 1
3193 TIP3_3193 15661 RESIDUE 1 M TIP3 1
3194 TIP3_3194 15664 RESIDUE 1 N TIP3 1
3195 TIP3_3195 15667 RESIDUE 1 O TIP3 1
3196 TIP3_3196 15670 RESIDUE 1 P TIP3 1
3197 TIP3_3197 15673 RESIDUE 1 Q TIP3 1
3198 TIP3_3198 15676 RESIDUE 1 R TIP3 1
3199 TIP3_3199 15679 RESIDUE 1 S TIP3 1
3200 TIP3_3200 15682 RESIDUE 1 T TIP3 1
3201 TIP3_3201 15685 RESIDUE 1 U TIP3 1
3202 TIP3_3202 15688 RESIDUE 1 V TIP3 1
3203 TIP3_3203 15691 RESIDUE 1 W TIP3 1
3204 TIP3_3204 15694 RESIDUE 1 X TIP3 1
3205 TIP3_3205 15697 RESIDUE 1 Y TIP3 1
3206 TIP3_3206 15700 RESIDUE 1 Z TIP3 1
3207 TIP3_3207 15703 RESIDUE 1 A TIP3 1
3208 TIP3_3208 15706 RESIDUE 1 B TIP3 1
3209 TIP3_3209 15709 RESIDUE 1 C TIP3 1
3210 TIP3_3210 15712 RESIDUE 1 D TIP3 1
3211 TIP3_3211 15715 RESIDUE 1 E TIP3 1
3212 TIP3_3212 15718 RESIDUE 1 F TIP3 1
3213 TIP3_3213 15721 RESIDUE 1 G TIP3 1
3214 TIP3_3214 15724 RESIDUE 1 H TIP3 1
3215 TIP3_3215 15727 RESIDUE 1 I TIP3 1
3216 TIP3_3216 15730 RESIDUE 1 J TIP3 1
3217 TIP3_3217 15733 RESIDUE 1 K TIP3 1
3218 TIP3_3218 15736 RESIDUE 1 L TIP3 1
3219 TIP3_3219 15739 RESIDUE 1 M TIP3 1
3220 TIP3_3220 15742 RESIDUE 1 N TIP3 1
3221 TIP3_3221 15745 RESIDUE 1 O TIP3 1
3222 TIP3_3222 15748 RESIDUE 1 P TIP3 1
3223 TIP3_3223 15751 RESIDUE 1 Q TIP3 1
3224 TIP3_3224 15754 RESIDUE 1 R TIP3 1
3225 TIP3_3225 15757 RESIDUE 1 S TIP3 1
3226 TIP3_3226 15760 RESIDUE 1 T TIP3 1
3227 TIP3_3227 15763 RESIDUE 1 U TIP3 1
3228 TIP3_3228 15766 RESIDUE 1 V TIP3 1
3229 TIP3_3229 15769 RESIDUE 1 W TIP3 1
3230 TIP3_3230 15772 RESIDUE 1 X TIP3 1
3231 TIP3_3231 15775 RESIDUE 1 Y TIP3 1
3232 TIP3_3232 15778 RESIDUE 1 Z TIP3 1
3233 TIP3_3233 15781 RESIDUE 1 A TIP3 1
3234 TIP3_3234 15784 RESIDUE 1 B TIP3 1
3235 TIP3_3235 15787 RESIDUE 1 C TIP3 1
3236 TIP3_3236 15790 RESIDUE 1 D TIP3 1
3237 TIP3_3237 15793 RESIDUE 1 E TIP3 1
3238 TIP3_3238 15796 RESIDUE 1 F TIP3 1
3239 TIP3_3239 15799 RESIDUE 1 G TIP3 1
3240 TIP3_3240 15802 RESIDUE 1 H TIP3 1
3241 TIP3_3241 15805 RESIDUE 1 I TIP3 1
3242 TIP3_3242 15808 RESIDUE 1 J TIP3 1
3243 TIP3_3243 15811 RESIDUE 1 K TIP3 1
3244 TIP3_3244 15814 RESIDUE 1 L TIP3 1
3245 TIP3_3245 15817 RESIDUE 1 M TIP3 1
3246 TIP3_3246 15820 RESIDUE 1 N TIP3 1
3247 TIP3_3247 15823 RESIDUE 1 O TIP3 1
3248 TIP3_3248 15826 RESIDUE 1 P TIP3 1
3249 TIP3_3249 15829 RESIDUE 1 Q TIP3 1
3250 TIP3_3250 15832 RESIDUE 1 R TIP3 1
3251 TIP3_3251 15835 RESIDUE 1 S TIP3 1
3252 TIP3_3252 15838 RESIDUE 1 T TIP3 1
3253 TIP3_3253 15841 RESIDUE 1 U TIP3 1
3254 TIP3_3254 15844 RESIDUE 1 V TIP3 1
3255 TIP3_3255 15847 RESIDUE 1 W TIP3 1
3256 TIP3_3256 15850 RESIDUE 1 X TIP3 1
3257 TIP3_3257 15853 RESIDUE 1 Y TIP3 1
3258 TIP3_3258 15856 RESIDUE 1 Z TIP3 1
3259 TIP3_3259 15859 RESIDUE 1 A TIP3 1
3260 TIP3_3260 15862 RESIDUE 1 B TIP3 1
3261 TIP3_3261 15865 RESIDUE 1 C TIP3 1
3262 TIP3_3262 15868 RESIDUE 1 D TIP3 1
3263 TIP3_3263 15871 RESIDUE 1 E TIP3 1
3264 TIP3_3264 15874 RESIDUE 1 F TIP3 1
3265 TIP3_3265 15877 RESIDUE 1 G TIP3 1
3266 TIP3_3266 15880 RESIDUE 1 H TIP3 1
3267 TIP3_3267 15883 RESIDUE 1 I TIP3 1
3268 TIP3_3268 15886 RESIDUE 1 J TIP3 1
3269 TIP3_3269 15889 RESIDUE 1 K TIP3 1
3270 TIP3_3270 15892 RESIDUE 1 L TIP3 1
3271 TIP3_3271 15895 RESIDUE 1 M TIP3 1
3272 TIP3_3272 15898 RESIDUE 1 N TIP3 1
3273 TIP3_3273 15901 RESIDUE 1 O TIP3 1
3274 TIP3_3274 15904 RESIDUE 1 P TIP3 1
3275 TIP3_3275 15907 RESIDUE 1 Q TIP3 1
3276 TIP3_3276 15910 RESIDUE 1 R TIP3 1
3277 TIP3_3277 15913 RESIDUE 1 S TIP3 1
3278 TIP3_3278 15916 RESIDUE 1 T TIP3 1
3279 TIP3_3279 15919 RESIDUE 1 U TIP3 1
3280 TIP3_3280 15922 RESIDUE 1 V TIP3 1
3281 TIP3_3281 15925 RESIDUE 1 W TIP3 1
3282 TIP3_3282 15928 RESIDUE 1 X TIP3 1
3283 TIP3_3283 15931 RESIDUE 1 Y TIP3 1
3284 TIP3_3284 15934 RESIDUE 1 Z TIP3 1
3285 TIP3_3285 15937 RESIDUE 1 A TIP3 1
3286 TIP3_3286 15940 RESIDUE 1 B TIP3 1
3287 TIP3_3287 15943 RESIDUE 1 C TIP3 1
3288 TIP3_3288 15946 RESIDUE 1 D TIP3 1
3289 TIP3_3289 15949 RESIDUE 1 E TIP3 1
3290 TIP3_3290 15952 RESIDUE 1 F TIP3 1
3291 TIP3_3291 15955 RESIDUE 1 G TIP3 1
3292 TIP3_3292 15958 RESIDUE 1 H TIP3 1
3293 TIP3_3293 15961 RESIDUE 1 I TIP3 1
3294 TIP3_3294 15964 RESIDUE 1 J TIP3 1
3295 TIP3_3295 15967 RESIDUE 1 K TIP3 1
3296 TIP3_3296 15970 RESIDUE 1 L TIP3 1
3297 TIP3_3297 15973 RESIDUE 1 M TIP3 1
3298 TIP3_3298 15976 RESIDUE 1 N TIP3 1
3299 TIP3_3299 15979 RESIDUE 1 O TIP3 1
3300 TIP3_3300 15982 RESIDUE 1 P TIP3 1
3301 TIP3_3301 15985 RESIDUE 1 Q TIP3 1
3302 TIP3_3302 15988 RESIDUE 1 R TIP3 1
3303 TIP3_3303 15991 RESIDUE 1 S TIP3 1
3304 TIP3_3304 15994 RESIDUE 1 T TIP3 1
3305 TIP3_3305 15997 RESIDUE 1 U TIP3 1
3306 TIP3_3306 16000 RESIDUE 1 V TIP3 1
3307 TIP3_3307 16003 RESIDUE 1 W TIP3 1
3308 TIP3_3308 16006 RESIDUE 1 X TIP3 1
3309 TIP3_3309 16009 RESIDUE 1 Y TIP3 1
3310 TIP3_3310 16012 RESIDUE 1 Z TIP3 1
3311 TIP3_3311 16015 RESIDUE 1 A TIP3 1
3312 TIP3_3312 16018 RESIDUE 1 B TIP3 1
3313 TIP3_3313 16021 RESIDUE 1 C TIP3 1
3314 TIP3_3314 16024 RESIDUE 1 D TIP3 1
3315 TIP3_3315 16027 RESIDUE 1 E TIP3 1
3316 TIP3_3316 16030 RESIDUE 1 F TIP3 1
3317 TIP3_3317 16033 RESIDUE 1 G TIP3 1
3318 TIP3_3318 16036 RESIDUE 1 H TIP3 1
3319 TIP3_3319 16039 RESIDUE 1 I TIP3 1
3320 TIP3_3320 16042 RESIDUE 1 J TIP3 1
3321 TIP3_3321 16045 RESIDUE 1 K TIP3 1
3322 TIP3_3322 16048 RESIDUE 1 L TIP3 1
3323 TIP3_3323 16051 RESIDUE 1 M TIP3 1
3324 TIP3_3324 16054 RESIDUE 1 N TIP3 1
3325 TIP3_3325 16057 RESIDUE 1 O TIP3 1
3326 TIP3_3326 16060 RESIDUE 1 P TIP3 1
3327 TIP3_3327 16063 RESIDUE 1 Q TIP3 1
3328 TIP3_3328 16066 RESIDUE 1 R TIP3 1
3329 TIP3_3329 16069 RESIDUE 1 S TIP3 1
3330 TIP3_3330 16072 RESIDUE 1 T TIP3 1
3331 TIP3_3331 16075 RESIDUE 1 U TIP3 1
3332 TIP3_3332 16078 RESIDUE 1 V TIP3 1
3333 TIP3_3333 16081 RESIDUE 1 W TIP3 1
3334 TIP3_3334 16084 RESIDUE 1 X TIP3 1
3335 TIP3_3335 16087 RESIDUE 1 Y TIP3 1
3336 TIP3_3336 16090 RESIDUE 1 Z TIP3 1
3337 TIP3_3337 16093 RESIDUE 1 A TIP3 1
3338 TIP3_3338 16096 RESIDUE 1 B TIP3 1
3339 TIP3_3339 16099 RESIDUE 1 C TIP3 1
3340 TIP3_3340 16102 RESIDUE 1 D TIP3 1
3341 TIP3_3341 16105 RESIDUE 1 E TIP3 1
3342 TIP3_3342 16108 RESIDUE 1 F TIP3 1
3343 TIP3_3343 16111 RESIDUE 1 G TIP3 1
3344 TIP3_3344 16114 RESIDUE 1 H TIP3 1
3345 TIP3_3345 16117 RESIDUE 1 I TIP3 1
3346 TIP3_3346 16120 RESIDUE 1 J TIP3 1
3347 TIP3_3347 16123 RESIDUE 1 K TIP3 1
3348 TIP3_3348 16126 RESIDUE 1 L TIP3 1
3349 TIP3_3349 16129 RESIDUE 1 M TIP3 1
3350 TIP3_3350 16132 RESIDUE 1 N TIP3 1
3351 TIP3_3351 16135 RESIDUE 1 O TIP3 1
3352 TIP3_3352 16138 RESIDUE 1 P TIP3 1
3353 TIP3_3353 16141 RESIDUE 1 Q TIP3 1
3354 TIP3_3354 16144 RESIDUE 1 R TIP3 1
3355 TIP3_3355 16147 RESIDUE 1 S TIP3 1
3356 TIP3_3356 16150 RESIDUE 1 T TIP3 1
3357 TIP3_3357 16153 RESIDUE 1 U TIP3 1
3358 TIP3_3358 16156 RESIDUE 1 V TIP3 1
3359 TIP3_3359 16159 RESIDUE 1 W TIP3 1
3360 TIP3_3360 16162 RESIDUE 1 X TIP3 1
3361 TIP3_3361 16165 RESIDUE 1 Y TIP3 1
3362 TIP3_3362 16168 RESIDUE 1 Z TIP3 1
3363 TIP3_3363 16171 RESIDUE 1 A TIP3 1
3364 TIP3_3364 16174 RESIDUE 1 B TIP3 1
3365 TIP3_3365 16177 RESIDUE 1 C TIP3 1
3366 TIP3_3366 16180 RESIDUE 1 D TIP3 1
3367 TIP3_3367 16183 RESIDUE 1 E TIP3 1
3368 TIP3_3368 16186 RESIDUE 1 F TIP3 1
3369 TIP3_3369 16189 RESIDUE 1 G TIP3 1
3370 TIP3_3370 16192 RESIDUE 1 H TIP3 1
3371 TIP3_3371 16195 RESIDUE 1 I TIP3 1
3372 TIP3_3372 16198 RESIDUE 1 J TIP3 1
3373 TIP3_3373 16201 RESIDUE 1 K TIP3 1
3374 TIP3_3374 16204 RESIDUE 1 L TIP3 1
3375 TIP3_3375 16207 RESIDUE 1 M TIP3 1
3376 TIP3_3376 16210 RESIDUE 1 N TIP3 1
3377 TIP3_3377 16213 RESIDUE 1 O TIP3 1
3378 TIP3_3378 16216 RESIDUE 1 P TIP3 1
3379 TIP3_3379 16219 RESIDUE 1 Q TIP3 1
3380 TIP3_3380 16222 RESIDUE 1 R TIP3 1
3381 TIP3_3381 16225 RESIDUE 1 S TIP3 1
3382 TIP3_3382 16228 RESIDUE 1 T TIP3 1
3383 TIP3_3383 16231 RESIDUE 1 U TIP3 1
3384 TIP3_3384 16234 RESIDUE 1 V TIP3 1
3385 TIP3_3385 16237 RESIDUE 1 W TIP3 1
3386 TIP3_3386 16240 RESIDUE 1 X TIP3 1
3387 TIP3_3387 16243 RESIDUE 1 Y TIP3 1
3388 TIP3_3388 16246 RESIDUE 1 Z TIP3 1
3389 TIP3_3389 16249 RESIDUE 1 A TIP3 1
3390 TIP3_3390 16252 RESIDUE 1 B TIP3 1
3391 TIP3_3391 16255 RESIDUE 1 C TIP3 1
3392 TIP3_3392 16258 RESIDUE 1 D TIP3 1
3393 TIP3_3393 16261 RESIDUE 1 E TIP3 1
3394 TIP3_3394 16264 RESIDUE 1 F TIP3 1
3395 TIP3_3395 16267 RESIDUE 1 G TIP3 1
3396 TIP3_3396 16270 RESIDUE 1 H TIP3 1
3397 TIP3_3397 16273 RESIDUE 1 I TIP3 1
3398 TIP3_3398 16276 RESIDUE 1 J TIP3 1
3399 TIP3_3399 16279 RESIDUE 1 K TIP3 1
3400 TIP3_3400 16282 RESIDUE 1 L TIP3 1
3401 TIP3_3401 16285 RESIDUE 1 M TIP3 1
3402 TIP3_3402 16288 RESIDUE 1 N TIP3 1
3403 TIP3_3403 16291 RESIDUE 1 O TIP3 1
3404 TIP3_3404 16294 RESIDUE 1 P TIP3 1
3405 TIP3_3405 16297 RESIDUE 1 Q TIP3 1
3406 TIP3_3406 16300 RESIDUE 1 R TIP3 1
3407 TIP3_3407 16303 RESIDUE 1 S TIP3 1
3408 TIP3_3408 16306 RESIDUE 1 T TIP3 1
3409 TIP3_3409 16309 RESIDUE 1 U TIP3 1
3410 TIP3_3410 16312 RESIDUE 1 V TIP3 1
3411 TIP3_3411 16315 RESIDUE 1 W TIP3 1
3412 TIP3_3412 16318 RESIDUE 1 X TIP3 1
3413 TIP3_3413 16321 RESIDUE 1 Y TIP3 1
3414 TIP3_3414 16324 RESIDUE 1 Z TIP3 1
3415 TIP3_3415 16327 RESIDUE 1 A TIP3 1
3416 TIP3_3416 16330 RESIDUE 1 B TIP3 1
3417 TIP3_3417 16333 RESIDUE 1 C TIP3 1
3418 TIP3_3418 16336 RESIDUE 1 D TIP3 1
3419 TIP3_3419 16339 RESIDUE 1 E TIP3 1
3420 TIP3_3420 16342 RESIDUE 1 F TIP3 1
3421 TIP3_3421 16345 RESIDUE 1 G TIP3 1
3422 TIP3_3422 16348 RESIDUE 1 H TIP3 1
3423 TIP3_3423 16351 RESIDUE 1 I TIP3 1
3424 TIP3_3424 16354 RESIDUE 1 J TIP3 1
3425 TIP3_3425 16357 RESIDUE 1 K TIP3 1
3426 TIP3_3426 16360 RESIDUE 1 L TIP3 1
3427 TIP3_3427 16363 RESIDUE 1 M TIP3 1
3428 TIP3_3428 16366 RESIDUE 1 N TIP3 1
3429 TIP3_3429 16369 RESIDUE 1 O TIP3 1
3430 TIP3_3430 16372 RESIDUE 1 P TIP3 1
3431 TIP3_3431 16375 RESIDUE 1 Q TIP3 1
3432 TIP3_3432 16378 RESIDUE 1 R TIP3 1
3433 TIP3_3433 16381 RESIDUE 1 S TIP3 1
3434 TIP3_3434 16384 RESIDUE 1 T TIP3 1
3435 TIP3_3435 16387 RESIDUE 1 U TIP3 1
3436 TIP3_3436 16390 RESIDUE 1 V TIP3 1
3437 TIP3_3437 16393 RESIDUE 1 W TIP3 1
3438 TIP3_3438 16396 RESIDUE 1 X TIP3 1
3439 TIP3_3439 16399 RESIDUE 1 Y TIP3 1
3440 TIP3_3440 16402 RESIDUE 1 Z TIP3 1
3441 TIP3_3441 16405 RESIDUE 1 A TIP3 1
3442 TIP3_3442 16408 RESIDUE 1 B TIP3 1
3443 TIP3_3443 16411 RESIDUE 1 C TIP3 1
3444 TIP3_3444 16414 RESIDUE 1 D TIP3 1
3445 TIP3_3445 16417 RESIDUE 1 E TIP3 1
3446 TIP3_3446 16420 RESIDUE 1 F TIP3 1
3447 TIP3_3447 16423 RESIDUE 1 G TIP3 1
3448 TIP3_3448 16426 RESIDUE 1 H TIP3 1
3449 TIP3_3449 16429 RESIDUE 1 I TIP3 1
3450 TIP3_3450 16432 RESIDUE 1 J TIP3 1
3451 TIP3_3451 16435 RESIDUE 1 K TIP3 1
3452 TIP3_3452 16438 RESIDUE 1 L TIP3 1
3453 TIP3_3453 16441 RESIDUE 1 M TIP3 1
3454 TIP3_3454 16444 RESIDUE 1 N TIP3 1
3455 TIP3_3455 16447 RESIDUE 1 O TIP3 1
3456 TIP3_3456 16450 RESIDUE 1 P TIP3 1
3457 TIP3_3457 16453 RESIDUE 1 Q TIP3 1
3458 TIP3_3458 16456 RESIDUE 1 R TIP3 1
3459 TIP3_3459 16459 RESIDUE 1 S TIP3 1
3460 TIP3_3460 16462 RESIDUE 1 T TIP3 1
3461 TIP3_3461 16465 RESIDUE 1 U TIP3 1
3462 TIP3_3462 16468 RESIDUE 1 V TIP3 1
3463 TIP3_3463 16471 RESIDUE 1 W TIP3 1
3464 TIP3_3464 16474 RESIDUE 1 X TIP3 1
3465 TIP3_3465 16477 RESIDUE 1 Y TIP3 1
3466 TIP3_3466 16480 RESIDUE 1 Z TIP3 1
3467 TIP3_3467 16483 RESIDUE 1 A TIP3 1
3468 TIP3_3468 16486 RESIDUE 1 B TIP3 1
3469 TIP3_3469 16489 RESIDUE 1 C TIP3 1
3470 TIP3_3470 16492 RESIDUE 1 D TIP3 1
3471 TIP3_3471 16495 RESIDUE 1 E TIP3 1
3472 TIP3_3472 16498 RESIDUE 1 F TIP3 1
3473 TIP3_3473 16501 RESIDUE 1 G TIP3 1
3474 TIP3_3474 16504 RESIDUE 1 H TIP3 1
3475 TIP3_3475 16507 RESIDUE 1 I TIP3 1
3476 TIP3_3476 16510 RESIDUE 1 J TIP3 1
3477 TIP3_3477 16513 RESIDUE 1 K TIP3 1
3478 TIP3_3478 16516 RESIDUE 1 L TIP3 1
3479 TIP3_3479 16519 RESIDUE 1 M TIP3 1
3480 TIP3_3480 16522 RESIDUE 1 N TIP3 1
3481 TIP3_3481 16525 RESIDUE 1 O TIP3 1
3482 TIP3_3482 16528 RESIDUE 1 P TIP3 1
3483 TIP3_3483 16531 RESIDUE 1 Q TIP3 1
3484 TIP3_3484 16534 RESIDUE 1 R TIP3 1
3485 TIP3_3485 16537 RESIDUE 1 S TIP3 1
3486 TIP3_3486 16540 RESIDUE 1 T TIP3 1
3487 TIP3_3487 16543 RESIDUE 1 U TIP3 1
3488 TIP3_3488 16546 RESIDUE 1 V TIP3 1
3489 TIP3_3489 16549 RESIDUE 1 W TIP3 1
3490 TIP3_3490 16552 RESIDUE 1 X TIP3 1
3491 TIP3_3491 16555 RESIDUE 1 Y TIP3 1
3492 TIP3_3492 16558 RESIDUE 1 Z TIP3 1
3493 TIP3_3493 16561 RESIDUE 1 A TIP3 1
3494 TIP3_3494 16564 RESIDUE 1 B TIP3 1
3495 TIP3_3495 16567 RESIDUE 1 C TIP3 1
3496 TIP3_3496 16570 RESIDUE 1 D TIP3 1
3497 TIP3_3497 16573 RESIDUE 1 E TIP3 1
3498 TIP3_3498 16576 RESIDUE 1 F TIP3 1
3499 TIP3_3499 16579 RESIDUE 1 G TIP3 1
3500 TIP3_3500 16582 RESIDUE 1 H TIP3 1
3501 TIP3_3501 16585 RESIDUE 1 I TIP3 1
3502 TIP3_3502 16588 RESIDUE 1 J TIP3 1
3503 TIP3_3503 16591 RESIDUE 1 K TIP3 1
3504 TIP3_3504 16594 RESIDUE 1 L TIP3 1
3505 TIP3_3505 16597 RESIDUE 1 M TIP3 1
3506 TIP3_3506 16600 RESIDUE 1 N TIP3 1
3507 TIP3_3507 16603 RESIDUE 1 O TIP3 1
3508 TIP3_3508 16606 RESIDUE 1 P TIP3 1
3509 TIP3_3509 16609 RESIDUE 1 Q TIP3 1
3510 TIP3_3510 16612 RESIDUE 1 R TIP3 1
3511 TIP3_3511 16615 RESIDUE 1 S TIP3 1
3512 TIP3_3512 16618 RESIDUE 1 T TIP3 1
3513 TIP3_3513 16621 RESIDUE 1 U TIP3 1
3514 TIP3_3514 16624 RESIDUE 1 V TIP3 1
3515 TIP3_3515 16627 RESIDUE 1 W TIP3 1
3516 TIP3_3516 16630 RESIDUE 1 X TIP3 1
3517 TIP3_3517 16633 RESIDUE 1 Y TIP3 1
3518 TIP3_3518 16636 RESIDUE 1 Z TIP3 1
3519 TIP3_3519 16639 RESIDUE 1 A TIP3 1
3520 TIP3_3520 16642 RESIDUE 1 B TIP3 1
3521 TIP3_3521 16645 RESIDUE 1 C TIP3 1
3522 TIP3_3522 16648 RESIDUE 1 D TIP3 1
3523 TIP3_3523 16651 RESIDUE 1 E TIP3 1
3524 TIP3_3524 16654 RESIDUE 1 F TIP3 1
3525 TIP3_3525 16657 RESIDUE 1 G TIP3 1
3526 TIP3_3526 16660 RESIDUE 1 H TIP3 1
3527 TIP3_3527 16663 RESIDUE 1 I TIP3 1
3528 TIP3_3528 16666 RESIDUE 1 J TIP3 1
3529 TIP3_3529 16669 RESIDUE 1 K TIP3 1
3530 TIP3_3530 16672 RESIDUE 1 L TIP3 1
3531 TIP3_3531 16675 RESIDUE 1 M TIP3 1
3532 TIP3_3532 16678 RESIDUE 1 N TIP3 1
3533 TIP3_3533 16681 RESIDUE 1 O TIP3 1
3534 TIP3_3534 16684 RESIDUE 1 P TIP3 1
3535 TIP3_3535 16687 RESIDUE 1 Q TIP3 1
3536 TIP3_3536 16690 RESIDUE 1 R TIP3 1
3537 TIP3_3537 16693 RESIDUE 1 S TIP3 1
3538 TIP3_3538 16696 RESIDUE 1 T TIP3 1
3539 TIP3_3539 16699 RESIDUE 1 U TIP3 1
3540 TIP3_3540 16702 RESIDUE 1 V TIP3 1
3541 TIP3_3541 16705 RESIDUE 1 W TIP3 1
3542 TIP3_3542 16708 RESIDUE 1 X TIP3 1
3543 TIP3_3543 16711 RESIDUE 1 Y TIP3 1
3544 TIP3_3544 16714 RESIDUE 1 Z TIP3 1
3545 TIP3_3545 16717 RESIDUE 1 A TIP3 1
3546 TIP3_3546 16720 RESIDUE 1 B TIP3 1
3547 TIP3_3547 16723 RESIDUE 1 C TIP3 1
3548 TIP3_3548 16726 RESIDUE 1 D TIP3 1
3549 TIP3_3549 16729 RESIDUE 1 E TIP3 1
3550 TIP3_3550 16732 RESIDUE 1 F TIP3 1
3551 TIP3_3551 16735 RESIDUE 1 G TIP3 1
3552 TIP3_3552 16738 RESIDUE 1 H TIP3 1
3553 TIP3_3553 16741 RESIDUE 1 I TIP3 1
3554 TIP3_3554 16744 RESIDUE 1 J TIP3 1
3555 TIP3_3555 16747 RESIDUE 1 K TIP3 1
3556 TIP3_3556 16750 RESIDUE 1 L TIP3 1
3557 TIP3_3557 16753 RESIDUE 1 M TIP3 1
3558 TIP3_3558 16756 RESIDUE 1 N TIP3 1
3559 TIP3_3559 16759 RESIDUE 1 O TIP3 1
3560 TIP3_3560 16762 RESIDUE 1 P TIP3 1
3561 TIP3_3561 16765 RESIDUE 1 Q TIP3 1
3562 TIP3_3562 16768 RESIDUE 1 R TIP3 1
3563 TIP3_3563 16771 RESIDUE 1 S TIP3 1
3564 TIP3_3564 16774 RESIDUE 1 T TIP3 1
3565 TIP3_3565 16777 RESIDUE 1 U TIP3 1
3566 TIP3_3566 16780 RESIDUE 1 V TIP3 1
3567 TIP3_3567 16783 RESIDUE 1 W TIP3 1
3568 TIP3_3568 16786 RESIDUE 1 X TIP3 1
3569 TIP3_3569 16789 RESIDUE 1 Y TIP3 1
3570 TIP3_3570 16792 RESIDUE 1 Z TIP3 1
3571 TIP3_3571 16795 RESIDUE 1 A TIP3 1
3572 TIP3_3572 16798 RESIDUE 1 B TIP3 1
3573 TIP3_3573 16801 RESIDUE 1 C TIP3 1
3574 TIP3_3574 16804 RESIDUE 1 D TIP3 1
3575 TIP3_3575 16807 RESIDUE 1 E TIP3 1
3576 TIP3_3576 16810 RESIDUE 1 F TIP3 1
3577 TIP3_3577 16813 RESIDUE 1 G TIP3 1
3578 TIP3_3578 16816 RESIDUE 1 H TIP3 1
3579 TIP3_3579 16819 RESIDUE 1 I TIP3 1
3580 TIP3_3580 16822 RESIDUE 1 J TIP3 1
3581 TIP3_3581 16825 RESIDUE 1 K TIP3 1
3582 TIP3_3582 16828 RESIDUE 1 L TIP3 1
3583 TIP3_3583 16831 RESIDUE 1 M TIP3 1
3584 TIP3_3584 16834 RESIDUE 1 N TIP3 1
3585 TIP3_3585 16837 RESIDUE 1 O TIP3 1
3586 TIP3_3586 16840 RESIDUE 1 P TIP3 1
3587 TIP3_3587 16843 RESIDUE 1 Q TIP3 1
3588 TIP3_3588 16846 RESIDUE 1 R TIP3 1
3589 TIP3_3589 16849 RESIDUE 1 S TIP3 1
3590 TIP3_3590 16852 RESIDUE 1 T TIP3 1
3591 TIP3_3591 16855 RESIDUE 1 U TIP3 1
3592 TIP3_3592 16858 RESIDUE 1 V TIP3 1
3593 TIP3_3593 16861 RESIDUE 1 W TIP3 1
3594 TIP3_3594 16864 RESIDUE 1 X TIP3 1
3595 TIP3_3595 16867 RESIDUE 1 Y TIP3 1
3596 TIP3_3596 16870 RESIDUE 1 Z TIP3 1
3597 TIP3_3597 16873 RESIDUE 1 A TIP3 1
3598 TIP3_3598 16876 RESIDUE 1 B TIP3 1
3599 TIP3_3599 16879 RESIDUE 1 C TIP3 1
3600 TIP3_3600 16882 RESIDUE 1 D TIP3 1
3601 TIP3_3601 16885 RESIDUE 1 E TIP3 1
3602 TIP3_3602 16888 RESIDUE 1 F TIP3 1
3603 TIP3_3603 16891 RESIDUE 1 G TIP3 1
3604 TIP3_3604 16894 RESIDUE 1 H TIP3 1
3605 TIP3_3605 16897 RESIDUE 1 I TIP3 1
3606 TIP3_3606 16900 RESIDUE 1 J TIP3 1
3607 TIP3_3607 16903 RESIDUE 1 K TIP3 1
3608 TIP3_3608 16906 RESIDUE 1 L TIP3 1
3609 TIP3_3609 16909 RESIDUE 1 M TIP3 1
3610 TIP3_3610 16912 RESIDUE 1 N TIP3 1
3611 TIP3_3611 16915 RESIDUE 1 O TIP3 1
3612 TIP3_3612 16918 RESIDUE 1 P TIP3 1
3613 TIP3_3613 16921 RESIDUE 1 Q TIP3 1
3614 TIP3_3614 16924 RESIDUE 1 R TIP3 1
3615 TIP3_3615 16927 RESIDUE 1 S TIP3 1
3616 TIP3_3616 16930 RESIDUE 1 T TIP3 1
3617 TIP3_3617 16933 RESIDUE 1 U TIP3 1
3618 TIP3_3618 16936 RESIDUE 1 V TIP3 1
3619 TIP3_3619 16939 RESIDUE 1 W TIP3 1
3620 TIP3_3620 16942 RESIDUE 1 X TIP3 1
3621 TIP3_3621 16945 RESIDUE 1 Y TIP3 1
3622 TIP3_3622 16948 RESIDUE 1 Z TIP3 1
3623 TIP3_3623 16951 RESIDUE 1 A TIP3 1
3624 TIP3_3624 16954 RESIDUE 1 B TIP3 1
3625 TIP3_3625 16957 RESIDUE 1 C TIP3 1
3626 TIP3_3626 16960 RESIDUE 1 D TIP3 1
3627 TIP3_3627 16963 RESIDUE 1 E TIP3 1
3628 TIP3_3628 16966 RESIDUE 1 F TIP3 1
3629 TIP3_3629 16969 RESIDUE 1 G TIP3 1
3630 TIP3_3630 16972 RESIDUE 1 H TIP3 1
3631 TIP3_3631 16975 RESIDUE 1 I TIP3 1
3632 TIP3_3632 16978 RESIDUE 1 J TIP3 1
3633 TIP3_3633 16981 RESIDUE 1 K TIP3 1
3634 TIP3_3634 16984 RESIDUE 1 L TIP3 1
3635 TIP3_3635 16987 RESIDUE 1 M TIP3 1
3636 TIP3_3636 16990 RESIDUE 1 N TIP3 1
3637 TIP3_3637 16993 RESIDUE 1 O TIP3 1
3638 TIP3_3638 16996 RESIDUE 1 P TIP3 1
3639 TIP3_3639 16999 RESIDUE 1 Q TIP3 1
3640 TIP3_3640 17002 RESIDUE 1 R TIP3 1
3641 TIP3_3641 17005 RESIDUE 1 S TIP3 1
3642 TIP3_3642 17008 RESIDUE 1 T TIP3 1
3643 TIP3_3643 17011 RESIDUE 1 U TIP3 1
3644 TIP3_3644 17014 RESIDUE 1 V TIP3 1
3645 TIP3_3645 17017 RESIDUE 1 W TIP3 1
3646 TIP3_3646 17020 RESIDUE 1 X TIP3 1
3647 TIP3_3647 17023 RESIDUE 1 Y TIP3 1
3648 TIP3_3648 17026 RESIDUE 1 Z TIP3 1
3649 TIP3_3649 17029 RESIDUE 1 A TIP3 1
3650 TIP3_3650 17032 RESIDUE 1 B TIP3 1
3651 TIP3_3651 17035 RESIDUE 1 C TIP3 1
3652 TIP3_3652 17038 RESIDUE 1 D TIP3 1
3653 TIP3_3653 17041 RESIDUE 1 E TIP3 1
3654 TIP3_3654 17044 RESIDUE 1 F TIP3 1
3655 TIP3_3655 17047 RESIDUE 1 G TIP3 1
3656 TIP3_3656 17050 RESIDUE 1 H TIP3 1
3657 TIP3_3657 17053 RESIDUE 1 I TIP3 1
3658 TIP3_3658 17056 RESIDUE 1 J TIP3 1
3659 TIP3_3659 17059 RESIDUE 1 K TIP3 1
3660 TIP3_3660 17062 RESIDUE 1 L TIP3 1
3661 TIP3_3661 17065 RESIDUE 1 M TIP3 1
3662 TIP3_3662 17068 RESIDUE 1 N TIP3 1
3663 TIP3_3663 17071 RESIDUE 1 O TIP3 1
3664 TIP3_3664 17074 RESIDUE 1 P TIP3 1
3665 TIP3_3665 17077 RESIDUE 1 Q TIP3 1
3666 TIP3_3666 17080 RESIDUE 1 R TIP3 1
3667 TIP3_3667 17083 RESIDUE 1 S TIP3 1
3668 TIP3_3668 17086 RESIDUE 1 T TIP3 1
3669 TIP3_3669 17089 RESIDUE 1 U TIP3 1
3670 TIP3_3670 17092 RESIDUE 1 V TIP3 1
3671 TIP3_3671 17095 RESIDUE 1 W TIP3 1
3672 TIP3_3672 17098 RESIDUE 1 X TIP3 1
3673 TIP3_3673 17101 RESIDUE 1 Y TIP3 1
3674 TIP3_3674 17104 RESIDUE 1 Z TIP3 1
3675 TIP3_3675 17107 RESIDUE 1 A TIP3 1
3676 TIP3_3676 17110 RESIDUE 1 B TIP3 1
3677 TIP3_3677 17113 RESIDUE 1 C TIP3 1
3678 TIP3_3678 17116 RESIDUE 1 D TIP3 1
3679 TIP3_3679 17119 RESIDUE 1 E TIP3 1
3680 TIP3_3680 17122 RESIDUE 1 F TIP3 1
3681 TIP3_3681 17125 RESIDUE 1 G TIP3 1
3682 TIP3_3682 17128 RESIDUE 1 H TIP3 1
3683 TIP3_3683 17131 RESIDUE 1 I TIP3 1
3684 TIP3_3684 17134 RESIDUE 1 J TIP3 1
3685 TIP3_3685 17137 RESIDUE 1 K TIP3 1
3686 TIP3_3686 17140 RESIDUE 1 L TIP3 1
3687 TIP3_3687 17143 RESIDUE 1 M TIP3 1
3688 TIP3_3688 17146 RESIDUE 1 N TIP3 1
3689 TIP3_3689 17149 RESIDUE 1 O TIP3 1
3690 TIP3_3690 17152 RESIDUE 1 P TIP3 1
3691 TIP3_3691 17155 RESIDUE 1 Q TIP3 1
3692 TIP3_3692 17158 RESIDUE 1 R TIP3 1
3693 TIP3_3693 17161 RESIDUE 1 S TIP3 1
3694 TIP3_3694 17164 RESIDUE 1 T TIP3 1
3695 TIP3_3695 17167 RESIDUE 1 U TIP3 1
3696 TIP3_3696 17170 RESIDUE 1 V TIP3 1
3697 TIP3_3697 17173 RESIDUE 1 W TIP3 1
3698 TIP3_3698 17176 RESIDUE 1 X TIP3 1
3699 TIP3_3699 17179 RESIDUE 1 Y TIP3 1
3700 TIP3_3700 17182 RESIDUE 1 Z TIP3 1
3701 TIP3_3701 17185 RESIDUE 1 A TIP3 1
3702 TIP3_3702 17188 RESIDUE 1 B TIP3 1
3703 TIP3_3703 17191 RESIDUE 1 C TIP3 1
3704 TIP3_3704 17194 RESIDUE 1 D TIP3 1
3705 TIP3_3705 17197 RESIDUE 1 E TIP3 1
3706 TIP3_3706 17200 RESIDUE 1 F TIP3 1
3707 TIP3_3707 17203 RESIDUE 1 G TIP3 1
3708 TIP3_3708 17206 RESIDUE 1 H TIP3 1
3709 TIP3_3709 17209 RESIDUE 1 I TIP3 1
3710 TIP3_3710 17212 RESIDUE 1 J TIP3 1
3711 TIP3_3711 17215 RESIDUE 1 K TIP3 1
3712 TIP3_3712 17218 RESIDUE 1 L TIP3 1
3713 TIP3_3713 17221 RESIDUE 1 M TIP3 1
3714 TIP3_3714 17224 RESIDUE 1 N TIP3 1
3715 TIP3_3715 17227 RESIDUE 1 O TIP3 1
3716 TIP3_3716 17230 RESIDUE 1 P TIP3 1
3717 TIP3_3717 17233 RESIDUE 1 Q TIP3 1
3718 TIP3_3718 17236 RESIDUE 1 R TIP3 1
3719 TIP3_3719 17239 RESIDUE 1 S TIP3 1
3720 TIP3_3720 17242 RESIDUE 1 T TIP3 1
3721 TIP3_3721 17245 RESIDUE 1 U TIP3 1
3722 TIP3_3722 17248 RESIDUE 1 V TIP3 1
3723 TIP3_3723 17251 RESIDUE 1 W TIP3 1
3724 TIP3_3724 17254 RESIDUE 1 X TIP3 1
3725 TIP3_3725 17257 RESIDUE 1 Y TIP3 1
3726 TIP3_3726 17260 RESIDUE 1 Z TIP3 1
3727 TIP3_3727 17263 RESIDUE 1 A TIP3 1
3728 TIP3_3728 17266 RESIDUE 1 B TIP3 1
3729 TIP3_3729 17269 RESIDUE 1 C TIP3 1
3730 TIP3_3730 17272 RESIDUE 1 D TIP3 1
3731 TIP3_3731 17275 RESIDUE 1 E TIP3 1
3732 TIP3_3732 17278 RESIDUE 1 F TIP3 1
3733 TIP3_3733 17281 RESIDUE 1 G TIP3 1
3734 TIP3_3734 17284 RESIDUE 1 H TIP3 1
3735 TIP3_3735 17287 RESIDUE 1 I TIP3 1
3736 TIP3_3736 17290 RESIDUE 1 J TIP3 1
3737 TIP3_3737 17293 RESIDUE 1 K TIP3 1
3738 TIP3_3738 17296 RESIDUE 1 L TIP3 1
3739 TIP3_3739 17299 RESIDUE 1 M TIP3 1
3740 TIP3_3740 17302 RESIDUE 1 N TIP3 1
3741 TIP3_3741 17305 RESIDUE 1 O TIP3 1
3742 TIP3_3742 17308 RESIDUE 1 P TIP3 1
3743 TIP3_3743 17311 RESIDUE 1 Q TIP3 1
3744 TIP3_3744 17314 RESIDUE 1 R TIP3 1
3745 TIP3_3745 17317 RESIDUE 1 S TIP3 1
3746 TIP3_3746 17320 RESIDUE 1 T TIP3 1
3747 TIP3_3747 17323 RESIDUE 1 U TIP3 1
3748 TIP3_3748 17326 RESIDUE 1 V TIP3 1
3749 TIP3_3749 17329 RESIDUE 1 W TIP3 1
3750 TIP3_3750 17332 RESIDUE 1 X TIP3 1
3751 TIP3_3751 17335 RESIDUE 1 Y TIP3 1
3752 TIP3_3752 17338 RESIDUE 1 Z TIP3 1
3753 TIP3_3753 17341 RESIDUE 1 A TIP3 1
3754 TIP3_3754 17344 RESIDUE 1 B TIP3 1
3755 TIP3_3755 17347 RESIDUE 1 C TIP3 1
3756 TIP3_3756 17350 RESIDUE 1 D TIP3 1
3757 TIP3_3757 17353 RESIDUE 1 E TIP3 1
3758 TIP3_3758 17356 RESIDUE 1 F TIP3 1
3759 TIP3_3759 17359 RESIDUE 1 G TIP3 1
3760 TIP3_3760 17362 RESIDUE 1 H TIP3 1
3761 TIP3_3761 17365 RESIDUE 1 I TIP3 1
3762 TIP3_3762 17368 RESIDUE 1 J TIP3 1
3763 TIP3_3763 17371 RESIDUE 1 K TIP3 1
3764 TIP3_3764 17374 RESIDUE 1 L TIP3 1
3765 TIP3_3765 17377 RESIDUE 1 M TIP3 1
3766 TIP3_3766 17380 RESIDUE 1 N TIP3 1
3767 TIP3_3767 17383 RESIDUE 1 O TIP3 1
3768 TIP3_3768 17386 RESIDUE 1 P TIP3 1
3769 TIP3_3769 17389 RESIDUE 1 Q TIP3 1
3770 TIP3_3770 17392 RESIDUE 1 R TIP3 1
3771 TIP3_3771 17395 RESIDUE 1 S TIP3 1
3772 TIP3_3772 17398 RESIDUE 1 T TIP3 1
3773 TIP3_3773 17401 RESIDUE 1 U TIP3 1
3774 TIP3_3774 17404 RESIDUE 1 V TIP3 1
3775 TIP3_3775 17407 RESIDUE 1 W TIP3 1
3776 TIP3_3776 17410 RESIDUE 1 X TIP3 1
3777 TIP3_3777 17413 RESIDUE 1 Y TIP3 1
3778 TIP3_3778 17416 RESIDUE 1 Z TIP3 1
3779 TIP3_3779 17419 RESIDUE 1 A TIP3 1
3780 TIP3_3780 17422 RESIDUE 1 B TIP3 1
3781 TIP3_3781 17425 RESIDUE 1 C TIP3 1
3782 TIP3_3782 17428 RESIDUE 1 D TIP3 1
3783 TIP3_3783 17431 RESIDUE 1 E TIP3 1
3784 TIP3_3784 17434 RESIDUE 1 F TIP3 1
3785 TIP3_3785 17437 RESIDUE 1 G TIP3 1
3786 TIP3_3786 17440 RESIDUE 1 H TIP3 1
3787 TIP3_3787 17443 RESIDUE 1 I TIP3 1
3788 TIP3_3788 17446 RESIDUE 1 J TIP3 1
3789 TIP3_3789 17449 RESIDUE 1 K TIP3 1
3790 TIP3_3790 17452 RESIDUE 1 L TIP3 1
3791 TIP3_3791 17455 RESIDUE 1 M TIP3 1
3792 TIP3_3792 17458 RESIDUE 1 N TIP3 1
3793 TIP3_3793 17461 RESIDUE 1 O TIP3 1
3794 TIP3_3794 17464 RESIDUE 1 P TIP3 1
3795 TIP3_3795 17467 RESIDUE 1 Q TIP3 1
3796 TIP3_3796 17470 RESIDUE 1 R TIP3 1
3797 TIP3_3797 17473 RESIDUE 1 S TIP3 1
3798 TIP3_3798 17476 RESIDUE 1 T TIP3 1
3799 TIP3_3799 17479 RESIDUE 1 U TIP3 1
3800 TIP3_3800 17482 RESIDUE 1 V TIP3 1
3801 TIP3_3801 17485 RESIDUE 1 W TIP3 1
3802 TIP3_3802 17488 RESIDUE 1 X TIP3 1
3803 TIP3_3803 17491 RESIDUE 1 Y TIP3 1
3804 TIP3_3804 17494 RESIDUE 1 Z TIP3 1
3805 TIP3_3805 17497 RESIDUE 1 A TIP3 1
3806 TIP3_3806 17500 RESIDUE 1 B TIP3 1
3807 TIP3_3807 17503 RESIDUE 1 C TIP3 1
3808 TIP3_3808 17506 RESIDUE 1 D TIP3 1
3809 TIP3_3809 17509 RESIDUE 1 E TIP3 1
3810 TIP3_3810 17512 RESIDUE 1 F TIP3 1
3811 TIP3_3811 17515 RESIDUE 1 G TIP3 1
3812 TIP3_3812 17518 RESIDUE 1 H TIP3 1
3813 TIP3_3813 17521 RESIDUE 1 I TIP3 1
3814 TIP3_3814 17524 RESIDUE 1 J TIP3 1
3815 TIP3_3815 17527 RESIDUE 1 K TIP3 1
3816 TIP3_3816 17530 RESIDUE 1 L TIP3 1
3817 TIP3_3817 17533 RESIDUE 1 M TIP3 1
3818 TIP3_3818 17536 RESIDUE 1 N TIP3 1
3819 TIP3_3819 17539 RESIDUE 1 O TIP3 1
3820 TIP3_3820 17542 RESIDUE 1 P TIP3 1
3821 TIP3_3821 17545 RESIDUE 1 Q TIP3 1
3822 TIP3_3822 17548 RESIDUE 1 R TIP3 1
3823 TIP3_3823 17551 RESIDUE 1 S TIP3 1
3824 TIP3_3824 17554 RESIDUE 1 T TIP3 1
3825 TIP3_3825 17557 RESIDUE 1 U TIP3 1
3826 TIP3_3826 17560 RESIDUE 1 V TIP3 1
3827 TIP3_3827 17563 RESIDUE 1 W TIP3 1
3828 TIP3_3828 17566 RESIDUE 1 X TIP3 1
3829 TIP3_3829 17569 RESIDUE 1 Y TIP3 1
3830 TIP3_3830 17572 RESIDUE 1 Z TIP3 1
3831 TIP3_3831 17575 RESIDUE 1 A TIP3 1
3832 TIP3_3832 17578 RESIDUE 1 B TIP3 1
3833 TIP3_3833 17581 RESIDUE 1 C TIP3 1
3834 TIP3_3834 17584 RESIDUE 1 D TIP3 1
3835 TIP3_3835 17587 RESIDUE 1 E TIP3 1
3836 TIP3_3836 17590 RESIDUE 1 F TIP3 1
3837 TIP3_3837 17593 RESIDUE 1 G TIP3 1
3838 TIP3_3838 17596 RESIDUE 1 H TIP3 1
3839 TIP3_3839 17599 RESIDUE 1 I TIP3 1
3840 TIP3_3840 17602 RESIDUE 1 J TIP3 1
3841 TIP3_3841 17605 RESIDUE 1 K TIP3 1
3842 TIP3_3842 17608 RESIDUE 1 L TIP3 1
3843 TIP3_3843 17611 RESIDUE 1 M TIP3 1
3844 TIP3_3844 17614 RESIDUE 1 N TIP3 1
3845 TIP3_3845 17617 RESIDUE 1 O TIP3 1
3846 TIP3_3846 17620 RESIDUE 1 P TIP3 1
3847 TIP3_3847 17623 RESIDUE 1 Q TIP3 1
3848 TIP3_3848 17626 RESIDUE 1 R TIP3 1
3849 TIP3_3849 17629 RESIDUE 1 S TIP3 1
3850 TIP3_3850 17632 RESIDUE 1 T TIP3 1
3851 TIP3_3851 17635 RESIDUE 1 U TIP3 1
3852 TIP3_3852 17638 RESIDUE 1 V TIP3 1
3853 TIP3_3853 17641 RESIDUE 1 W TIP3 1
3854 TIP3_3854 17644 RESIDUE 1 X TIP3 1
3855 TIP3_3855 17647 RESIDUE 1 Y TIP3 1
3856 TIP3_3856 17650 RESIDUE 1 Z TIP3 1
3857 TIP3_3857 17653 RESIDUE 1 A TIP3 1
3858 TIP3_3858 17656 RESIDUE 1 B TIP3 1
3859 TIP3_3859 17659 RESIDUE 1 C TIP3 1
3860 TIP3_3860 17662 RESIDUE 1 D TIP3 1
3861 TIP3_3861 17665 RESIDUE 1 E TIP3 1
3862 TIP3_3862 17668 RESIDUE 1 F TIP3 1
3863 TIP3_3863 17671 RESIDUE 1 G TIP3 1
3864 TIP3_3864 17674 RESIDUE 1 H TIP3 1
3865 TIP3_3865 17677 RESIDUE 1 I TIP3 1
3866 TIP3_3866 17680 RESIDUE 1 J TIP3 1
3867 TIP3_3867 17683 RESIDUE 1 K TIP3 1
3868 TIP3_3868 17686 RESIDUE 1 L TIP3 1
3869 TIP3_3869 17689 RESIDUE 1 M TIP3 1
3870 TIP3_3870 17692 RESIDUE 1 N TIP3 1
3871 TIP3_3871 17695 RESIDUE 1 O TIP3 1
3872 TIP3_3872 17698 RESIDUE 1 P TIP3 1
3873 TIP3_3873 17701 RESIDUE 1 Q TIP3 1
3874 TIP3_3874 17704 RESIDUE 1 R TIP3 1
3875 TIP3_3875 17707 RESIDUE 1 S TIP3 1
3876 TIP3_3876 17710 RESIDUE 1 T TIP3 1
3877 TIP3_3877 17713 RESIDUE 1 U TIP3 1
3878 TIP3_3878 17716 RESIDUE 1 V TIP3 1
3879 TIP3_3879 17719 RESIDUE 1 W TIP3 1
3880 TIP3_3880 17722 RESIDUE 1 X TIP3 1
3881 TIP3_3881 17725 RESIDUE 1 Y TIP3 1
3882 TIP3_3882 17728 RESIDUE 1 Z TIP3 1
3883 TIP3_3883 17731 RESIDUE 1 A TIP3 1
3884 TIP3_3884 17734 RESIDUE 1 B TIP3 1
3885 TIP3_3885 17737 RESIDUE 1 C TIP3 1
3886 TIP3_3886 17740 RESIDUE 1 D TIP3 1
3887 TIP3_3887 17743 RESIDUE 1 E TIP3 1
3888 TIP3_3888 17746 RESIDUE 1 F TIP3 1
3889 TIP3_3889 17749 RESIDUE 1 G TIP3 1
3890 TIP3_3890 17752 RESIDUE 1 H TIP3 1
3891 TIP3_3891 17755 RESIDUE 1 I TIP3 1
3892 TIP3_3892 17758 RESIDUE 1 J TIP3 1
3893 TIP3_3893 17761 RESIDUE 1 K TIP3 1
3894 TIP3_3894 17764 RESIDUE 1 L TIP3 1
3895 TIP3_3895 17767 RESIDUE 1 M TIP3 1
3896 TIP3_3896 17770 RESIDUE 1 N TIP3 1
3897 TIP3_3897 17773 RESIDUE 1 O TIP3 1
3898 TIP3_3898 17776 RESIDUE 1 P TIP3 1
3899 TIP3_3899 17779 RESIDUE 1 Q TIP3 1
3900 TIP3_3900 17782 RESIDUE 1 R TIP3 1
3901 TIP3_3901 17785 RESIDUE 1 S TIP3 1
3902 TIP3_3902 17788 RESIDUE 1 T TIP3 1
3903 TIP3_3903 17791 RESIDUE 1 U TIP3 1
3904 TIP3_3904 17794 RESIDUE 1 V TIP3 1
3905 TIP3_3905 17797 RESIDUE 1 W TIP3 1
3906 TIP3_3906 17800 RESIDUE 1 X TIP3 1
3907 TIP3_3907 17803 RESIDUE 1 Y TIP3 1
3908 TIP3_3908 17806 RESIDUE 1 Z TIP3 1
3909 TIP3_3909 17809 RESIDUE 1 A TIP3 1
3910 TIP3_3910 17812 RESIDUE 1 B TIP3 1
3911 TIP3_3911 17815 RESIDUE 1 C TIP3 1
3912 TIP3_3912 17818 RESIDUE 1 D TIP3 1
3913 TIP3_3913 17821 RESIDUE 1 E TIP3 1
3914 TIP3_3914 17824 RESIDUE 1 F TIP3 1
3915 TIP3_3915 17827 RESIDUE 1 G TIP3 1
3916 TIP3_3916 17830 RESIDUE 1 H TIP3 1
3917 TIP3_3917 17833 RESIDUE 1 I TIP3 1
3918 TIP3_3918 17836 RESIDUE 1 J TIP3 1
3919 TIP3_3919 17839 RESIDUE 1 K TIP3 1
3920 TIP3_3920 17842 RESIDUE 1 L TIP3 1
