@<TRIPOS>MOLECULE
NIL
1831 1831 604 0 0
POLYMER
CHARGES


@<TRIPOS>ATOM
1 C1 -0.858717 -0.79021 0.470393 c2 1 COR_1 -1.3000e-01
2 C_4 -4.4954e-01 -1.0512e+00 -7.9232e-01 c2 1 COR_1 -1.3000e-01
3 C_12 -3.4839e-01 2.6559e-01 1.1464e+00 c2 1 COR_1 -1.3000e-01
4 C3 4.7203e-01 -2.5695e-01 -1.3827e+00 c2 1 COR_1 -1.3000e-01
5 C5 5.7272e-01 1.0599e+00 5.5203e-01 c2 1 COR_1 -1.3000e-01
6 C_8 9.8277e-01 7.9927e-01 -7.1058e-01 c2 1 COR_1 -1.3000e-01
7 H1 -1.6002e+00 -1.4324e+00 9.4210e-01 ha 1 COR_1 1.3000e-01
8 H2 -8.6156e-01 -1.9010e+00 -1.3329e+00 ha 1 COR_1 1.3000e-01
9 H3 8.0155e-01 -4.6709e-01 -2.3983e+00 ha 1 COR_1 1.3000e-01
10 H4 9.8652e-01 1.9109e+00 1.0899e+00 ha 1 COR_1 1.3000e-01
11 H5 1.7238e+00 1.4394e+00 -1.1851e+00 ha 1 COR_1 1.3000e-01
12 H7 -6.7666e-01 4.7483e-01 2.1594e+00 ha 1 COR_1 1.3000e-01
13 C1 -8.5872e-01 -7.9021e-01 4.7039e-01 c2 2 COR_2 -2.7822e-01
14 C_4 -4.4954e-01 -1.0512e+00 -7.9232e-01 c2 2 COR_2 -9.1923e-02
15 C_12 -3.4839e-01 2.6559e-01 1.1464e+00 c2 2 COR_2 3.7898e-01
16 C3 4.7203e-01 -2.5695e-01 -1.3827e+00 c2 2 COR_2 -1.6592e-01
17 C5 5.7272e-01 1.0599e+00 5.5203e-01 c2 2 COR_2 -2.2222e-01
18 C_8 9.8277e-01 7.9927e-01 -7.1058e-01 c2 2 COR_2 -9.6923e-02
19 H1 -1.6002e+00 -1.4324e+00 9.4210e-01 ha 2 COR_2 1.3308e-01
20 H2 -8.6156e-01 -1.9010e+00 -1.3329e+00 ha 2 COR_2 1.3208e-01
21 H3 8.0155e-01 -4.6709e-01 -2.3983e+00 ha 2 COR_2 1.3308e-01
22 H4 9.8652e-01 1.9109e+00 1.0899e+00 ha 2 COR_2 1.5008e-01
23 H5 1.7238e+00 1.4394e+00 -1.1851e+00 ha 2 COR_2 1.3408e-01
24 O1 -7.5456e-01 5.2445e-01 2.4000e+00 oh 2 COR_2 -6.2422e-01
25 H7 -1.4108e+00 -1.5171e-01 2.6427e+00 ho 2 COR_2 4.1808e-01
26 O 5.7483e+00 4.1211e+00 2.6714e+00 OW 3 WAT_3 -8.3400e-01
27 H1 6.5973e+00 4.5581e+00 2.6054e+00 HW 3 WAT_3 4.1700e-01
28 H2 5.3814e+00 4.4331e+00 3.4986e+00 HW 3 WAT_3 4.1700e-01
29 O 6.5224e-01 8.5959e+00 1.2678e+00 OW 4 WAT_4 -8.3400e-01
30 H1 1.5217e+00 8.8784e+00 1.5514e+00 HW 4 WAT_4 4.1700e-01
31 H2 1.6127e-01 9.4095e+00 1.1527e+00 HW 4 WAT_4 4.1700e-01
32 O 9.3255e-01 9.0165e+00 7.4348e+00 OW 5 WAT_5 -8.3400e-01
33 H1 2.7743e-01 8.7476e+00 6.7908e+00 HW 5 WAT_5 4.1700e-01
34 H2 1.7703e+00 8.9069e+00 6.9850e+00 HW 5 WAT_5 4.1700e-01
35 O 6.6793e+00 1.0371e+01 3.1192e+00 OW 6 WAT_6 -8.3400e-01
36 H1 7.1010e+00 1.0205e+01 3.9623e+00 HW 6 WAT_6 4.1700e-01
37 H2 6.8044e+00 9.5609e+00 2.6247e+00 HW 6 WAT_6 4.1700e-01
38 O 9.1921e+00 9.3946e+00 3.6688e-01 OW 7 WAT_7 -8.3400e-01
39 H1 9.7127e+00 8.6795e+00 9.9373e-04 HW 7 WAT_7 4.1700e-01
40 H2 9.8389e+00 1.0033e+01 6.6693e-01 HW 7 WAT_7 4.1700e-01
41 O 8.3026e+00 3.4901e+00 6.9109e+00 OW 8 WAT_8 -8.3400e-01
42 H1 7.4900e+00 3.1158e+00 6.5704e+00 HW 8 WAT_8 4.1700e-01
43 H2 8.8067e+00 2.7346e+00 7.2130e+00 HW 8 WAT_8 4.1700e-01
44 O 4.6132e+00 1.1963e+01 4.0939e+00 OW 9 WAT_9 -8.3400e-01
45 H1 3.8395e+00 1.1422e+01 3.9338e+00 HW 9 WAT_9 4.1700e-01
46 H2 5.3427e+00 1.1443e+01 3.7557e+00 HW 9 WAT_9 4.1700e-01
47 O 8.0563e+00 5.6567e+00 2.4230e+00 OW 10 WAT_10 -8.3400e-01
48 H1 8.1776e+00 5.6153e+00 3.3715e+00 HW 10 WAT_10 4.1700e-01
49 H2 7.6712e+00 6.5191e+00 2.2676e+00 HW 10 WAT_10 4.1700e-01
50 O 1.0571e+01 8.8589e+00 4.9094e+00 OW 11 WAT_11 -8.3400e-01
51 H1 9.6438e+00 8.7927e+00 5.1383e+00 HW 11 WAT_11 4.1700e-01
52 H2 1.0723e+01 9.7969e+00 4.7950e+00 HW 11 WAT_11 4.1700e-01
53 O 6.0851e+00 7.7565e+00 1.3497e+01 OW 12 WAT_12 -8.3400e-01
54 H1 5.7808e+00 8.6357e+00 1.3722e+01 HW 12 WAT_12 4.1700e-01
55 H2 7.0397e+00 7.8165e+00 1.3533e+01 HW 12 WAT_12 4.1700e-01
56 O 1.0971e+01 5.3895e+00 6.9320e+00 OW 13 WAT_13 -8.3400e-01
57 H1 1.1364e+01 5.7067e+00 6.1188e+00 HW 13 WAT_13 4.1700e-01
58 H2 1.1333e+01 4.5106e+00 7.0464e+00 HW 13 WAT_13 4.1700e-01
59 O 1.2210e+01 4.5783e+00 1.3072e+01 OW 14 WAT_14 -8.3400e-01
60 H1 1.2578e+01 3.7578e+00 1.3400e+01 HW 14 WAT_14 4.1700e-01
61 H2 1.1350e+01 4.6385e+00 1.3487e+01 HW 14 WAT_14 4.1700e-01
62 O 1.1960e+01 8.3531e+00 7.6665e+00 OW 15 WAT_15 -8.3400e-01
63 H1 1.1880e+01 7.4386e+00 7.3956e+00 HW 15 WAT_15 4.1700e-01
64 H2 1.1547e+01 8.8498e+00 6.9604e+00 HW 15 WAT_15 4.1700e-01
65 O 1.2670e+01 1.5445e-01 1.2460e+01 OW 16 WAT_16 -8.3400e-01
66 H1 1.1796e+01 4.8796e-01 1.2257e+01 HW 16 WAT_16 4.1700e-01
67 H2 1.2561e+01 -3.1823e-01 1.3285e+01 HW 16 WAT_16 4.1700e-01
68 O 7.5448e+00 5.8126e+00 5.2963e+00 OW 17 WAT_17 -8.3400e-01
69 H1 6.8364e+00 6.2812e+00 5.7376e+00 HW 17 WAT_17 4.1700e-01
70 H2 7.8292e+00 5.1548e+00 5.9308e+00 HW 17 WAT_17 4.1700e-01
71 O 5.7393e-01 1.2392e+01 2.7149e+00 OW 18 WAT_18 -8.3400e-01
72 H1 1.9672e-01 1.2881e+01 1.9834e+00 HW 18 WAT_18 4.1700e-01
73 H2 8.3123e-01 1.3065e+01 3.3455e+00 HW 18 WAT_18 4.1700e-01
74 O 5.2807e+00 1.3202e+01 1.3834e+01 OW 19 WAT_19 -8.3400e-01
75 H1 5.8981e+00 1.3878e+01 1.3553e+01 HW 19 WAT_19 4.1700e-01
76 H2 4.4200e+00 1.3611e+01 1.3743e+01 HW 19 WAT_19 4.1700e-01
77 O 1.3177e+01 9.0548e+00 1.3620e+01 OW 20 WAT_20 -8.3400e-01
78 H1 1.2650e+01 9.5791e+00 1.3017e+01 HW 20 WAT_20 4.1700e-01
79 H2 1.3520e+01 9.6876e+00 1.4251e+01 HW 20 WAT_20 4.1700e-01
80 O 1.1557e+01 7.9800e+00 1.1027e+01 OW 21 WAT_21 -8.3400e-01
81 H1 1.0825e+01 8.4887e+00 1.1376e+01 HW 21 WAT_21 4.1700e-01
82 H2 1.1159e+01 7.1630e+00 1.0726e+01 HW 21 WAT_21 4.1700e-01
83 O 8.5014e+00 1.0770e+01 1.3660e+01 OW 22 WAT_22 -8.3400e-01
84 H1 8.9202e+00 1.1613e+01 1.3488e+01 HW 22 WAT_22 4.1700e-01
85 H2 7.5823e+00 1.0907e+01 1.3431e+01 HW 22 WAT_22 4.1700e-01
86 O 8.5130e+00 1.2979e+01 5.7761e+00 OW 23 WAT_23 -8.3400e-01
87 H1 9.2001e+00 1.3526e+01 6.1569e+00 HW 23 WAT_23 4.1700e-01
88 H2 7.7262e+00 1.3523e+01 5.8111e+00 HW 23 WAT_23 4.1700e-01
89 O 1.7789e+00 7.4304e-01 1.2972e+01 OW 24 WAT_24 -8.3400e-01
90 H1 1.4304e+00 1.1994e+00 1.3738e+01 HW 24 WAT_24 4.1700e-01
91 H2 1.4477e+00 -1.5125e-01 1.3054e+01 HW 24 WAT_24 4.1700e-01
92 O 1.7238e+00 3.4122e+00 1.1880e+01 OW 25 WAT_25 -8.3400e-01
93 H1 1.5440e+00 2.5148e+00 1.2160e+01 HW 25 WAT_25 4.1700e-01
94 H2 1.3218e+00 3.9594e+00 1.2555e+01 HW 25 WAT_25 4.1700e-01
95 O 3.3421e+00 7.8069e+00 1.8282e+00 OW 26 WAT_26 -8.3400e-01
96 H1 3.4225e+00 6.8596e+00 1.9399e+00 HW 26 WAT_26 4.1700e-01
97 H2 4.2341e+00 8.1375e+00 1.9343e+00 HW 26 WAT_26 4.1700e-01
98 O 1.3054e+01 1.2550e+00 2.5937e+00 OW 27 WAT_27 -8.3400e-01
99 H1 1.3334e+01 4.1180e-01 2.9496e+00 HW 27 WAT_27 4.1700e-01
100 H2 1.2281e+01 1.4873e+00 3.1075e+00 HW 27 WAT_27 4.1700e-01
101 O 5.1348e+00 6.7468e+00 6.3026e+00 OW 28 WAT_28 -8.3400e-01
102 H1 4.9089e+00 6.5305e+00 7.2072e+00 HW 28 WAT_28 4.1700e-01
103 H2 4.3541e+00 7.1796e+00 5.9572e+00 HW 28 WAT_28 4.1700e-01
104 O 4.6474e+00 1.0374e+01 1.1449e+00 OW 29 WAT_29 -8.3400e-01
105 H1 5.4137e+00 1.0262e+01 1.7074e+00 HW 29 WAT_29 4.1700e-01
106 H2 4.7249e+00 9.6781e+00 4.9258e-01 HW 29 WAT_29 4.1700e-01
107 O 1.0833e+01 2.3529e+00 4.0295e+00 OW 30 WAT_30 -8.3400e-01
108 H1 1.0019e+01 1.8542e+00 3.9540e+00 HW 30 WAT_30 4.1700e-01
109 H2 1.0639e+01 3.1927e+00 3.6131e+00 HW 30 WAT_30 4.1700e-01
110 O 2.8770e+00 8.2799e+00 5.1921e+00 OW 31 WAT_31 -8.3400e-01
111 H1 2.7568e+00 9.0061e+00 4.5802e+00 HW 31 WAT_31 4.1700e-01
112 H2 2.5671e+00 7.5102e+00 4.7149e+00 HW 31 WAT_31 4.1700e-01
113 O 1.0417e+01 1.0714e+00 1.1399e+01 OW 32 WAT_32 -8.3400e-01
114 H1 9.6343e+00 1.5460e+00 1.1679e+01 HW 32 WAT_32 4.1700e-01
115 H2 1.0123e+01 1.6692e-01 1.1291e+01 HW 32 WAT_32 4.1700e-01
116 O 1.9701e+00 9.4017e+00 1.1975e+01 OW 33 WAT_33 -8.3400e-01
117 H1 2.3374e+00 9.3145e+00 1.2855e+01 HW 33 WAT_33 4.1700e-01
118 H2 1.4012e+00 8.6384e+00 1.1876e+01 HW 33 WAT_33 4.1700e-01
119 O 4.8894e+00 6.1597e+00 1.1471e+01 OW 34 WAT_34 -8.3400e-01
120 H1 5.4409e+00 6.2693e+00 1.0697e+01 HW 34 WAT_34 4.1700e-01
121 H2 5.4038e+00 6.5335e+00 1.2187e+01 HW 34 WAT_34 4.1700e-01
122 O 7.0685e+00 7.9668e+00 1.8213e+00 OW 35 WAT_35 -8.3400e-01
123 H1 6.5002e+00 7.5186e+00 1.1949e+00 HW 35 WAT_35 4.1700e-01
124 H2 7.7774e+00 8.3260e+00 1.2878e+00 HW 35 WAT_35 4.1700e-01
125 O 7.5920e+00 2.4877e+00 1.0384e+00 OW 36 WAT_36 -8.3400e-01
126 H1 7.2442e+00 1.8101e+00 4.5864e-01 HW 36 WAT_36 4.1700e-01
127 H2 7.7933e+00 2.0267e+00 1.8527e+00 HW 36 WAT_36 4.1700e-01
128 O 1.2019e+01 3.4334e+00 1.0439e+01 OW 37 WAT_37 -8.3400e-01
129 H1 1.2036e+01 3.8843e+00 1.1284e+01 HW 37 WAT_37 4.1700e-01
130 H2 1.1771e+01 2.5340e+00 1.0653e+01 HW 37 WAT_37 4.1700e-01
131 O 3.7169e+00 3.2697e-01 5.8609e+00 OW 38 WAT_38 -8.3400e-01
132 H1 3.5884e+00 3.1876e-01 6.8094e+00 HW 38 WAT_38 4.1700e-01
133 H2 2.8931e+00 6.6528e-01 5.5100e+00 HW 38 WAT_38 4.1700e-01
134 O 1.1206e+01 1.1707e+01 5.3409e+00 OW 39 WAT_39 -8.3400e-01
135 H1 1.0587e+01 1.2172e+01 4.7772e+00 HW 39 WAT_39 4.1700e-01
136 H2 1.1718e+01 1.2399e+01 5.7579e+00 HW 39 WAT_39 4.1700e-01
137 O 6.3275e+00 1.6401e+00 5.5154e+00 OW 40 WAT_40 -8.3400e-01
138 H1 5.6978e+00 9.3883e-01 5.6824e+00 HW 40 WAT_40 4.1700e-01
139 H2 5.7880e+00 2.4005e+00 5.2987e+00 HW 40 WAT_40 4.1700e-01
140 O 7.9943e+00 4.6554e+00 9.4323e+00 OW 41 WAT_41 -8.3400e-01
141 H1 7.9979e+00 4.2144e+00 8.5827e+00 HW 41 WAT_41 4.1700e-01
142 H2 8.8894e+00 4.9772e+00 9.5395e+00 HW 41 WAT_41 4.1700e-01
143 O 4.8185e+00 1.5948e+00 1.3842e+01 OW 42 WAT_42 -8.3400e-01
144 H1 4.8203e+00 2.1121e+00 1.3037e+01 HW 42 WAT_42 4.1700e-01
145 H2 3.9889e+00 1.1178e+00 1.3819e+01 HW 42 WAT_42 4.1700e-01
146 O 4.8128e-01 8.0037e+00 1.0093e+01 OW 43 WAT_43 -8.3400e-01
147 H1 1.0529e+00 7.2360e+00 1.0094e+01 HW 43 WAT_43 4.1700e-01
148 H2 4.8143e-01 8.3026e+00 9.1839e+00 HW 43 WAT_43 4.1700e-01
149 O 6.6447e+00 1.3072e+01 9.8553e+00 OW 44 WAT_44 -8.3400e-01
150 H1 6.3476e+00 1.2467e+01 9.1761e+00 HW 44 WAT_44 4.1700e-01
151 H2 7.5947e+00 1.3110e+01 9.7443e+00 HW 44 WAT_44 4.1700e-01
152 O 5.1556e-01 1.1451e+01 1.0999e+01 OW 45 WAT_45 -8.3400e-01
153 H1 5.9360e-01 1.1586e+01 1.0055e+01 HW 45 WAT_45 4.1700e-01
154 H2 1.1297e+00 1.0743e+01 1.1192e+01 HW 45 WAT_45 4.1700e-01
155 O 4.6941e+00 3.9863e+00 5.2431e+00 OW 46 WAT_46 -8.3400e-01
156 H1 4.8008e+00 4.8867e+00 5.5499e+00 HW 46 WAT_46 4.1700e-01
157 H2 3.7834e+00 3.9381e+00 4.9525e+00 HW 46 WAT_46 4.1700e-01
158 O 1.7603e+00 1.3151e+01 7.4096e+00 OW 47 WAT_47 -8.3400e-01
159 H1 1.3531e+00 1.3293e+01 6.5549e+00 HW 47 WAT_47 4.1700e-01
160 H2 2.6516e+00 1.2867e+01 7.2067e+00 HW 47 WAT_47 4.1700e-01
161 O 1.2427e+01 1.2219e+01 8.3691e+00 OW 48 WAT_48 -8.3400e-01
162 H1 1.2779e+01 1.1622e+01 7.7092e+00 HW 48 WAT_48 4.1700e-01
163 H2 1.1543e+01 1.1893e+01 8.5399e+00 HW 48 WAT_48 4.1700e-01
164 O 1.1592e+00 3.4600e+00 7.3082e+00 OW 49 WAT_49 -8.3400e-01
165 H1 8.7386e-01 3.0956e+00 8.1460e+00 HW 49 WAT_49 4.1700e-01
166 H2 1.0971e+00 2.7280e+00 6.6945e+00 HW 49 WAT_49 4.1700e-01
167 O 2.6369e+00 1.0413e+01 3.3960e+00 OW 50 WAT_50 -8.3400e-01
168 H1 2.0297e+00 1.1153e+01 3.4056e+00 HW 50 WAT_50 4.1700e-01
169 H2 3.1118e+00 1.0503e+01 2.5699e+00 HW 50 WAT_50 4.1700e-01
170 O 7.3810e+00 2.1681e+00 1.0433e+01 OW 51 WAT_51 -8.3400e-01
171 H1 7.6782e+00 3.0744e+00 1.0353e+01 HW 51 WAT_51 4.1700e-01
172 H2 7.9295e+00 1.6800e+00 9.8194e+00 HW 51 WAT_51 4.1700e-01
173 O 8.2951e+00 8.7156e+00 1.1179e+01 OW 52 WAT_52 -8.3400e-01
174 H1 8.6621e+00 8.2415e+00 1.1925e+01 HW 52 WAT_52 4.1700e-01
175 H2 8.1056e+00 9.5898e+00 1.1520e+01 HW 52 WAT_52 4.1700e-01
176 O 9.5439e+00 1.2897e+01 3.0045e+00 OW 53 WAT_53 -8.3400e-01
177 H1 9.8855e+00 1.3641e+01 2.5089e+00 HW 53 WAT_53 4.1700e-01
178 H2 8.7152e+00 1.3210e+01 3.3670e+00 HW 53 WAT_53 4.1700e-01
179 O 1.1576e+01 2.5377e+00 6.7359e+00 OW 54 WAT_54 -8.3400e-01
180 H1 1.1453e+01 2.5563e+00 5.7868e+00 HW 54 WAT_54 4.1700e-01
181 H2 1.2525e+01 2.5856e+00 6.8557e+00 HW 54 WAT_54 4.1700e-01
182 O 2.3424e+00 5.9082e+00 1.0488e+01 OW 55 WAT_55 -8.3400e-01
183 H1 3.0234e+00 6.1721e+00 1.1107e+01 HW 55 WAT_55 4.1700e-01
184 H2 2.0272e+00 5.0683e+00 1.0822e+01 HW 55 WAT_55 4.1700e-01
185 O 6.5349e+00 6.9550e+00 9.5756e+00 OW 56 WAT_56 -8.3400e-01
186 H1 7.0427e+00 7.4531e+00 1.0216e+01 HW 56 WAT_56 4.1700e-01
187 H2 7.0662e+00 6.1785e+00 9.3995e+00 HW 56 WAT_56 4.1700e-01
188 O 3.8446e+00 4.5381e+00 8.3917e+00 OW 57 WAT_57 -8.3400e-01
189 H1 3.5046e+00 5.0156e+00 9.1484e+00 HW 57 WAT_57 4.1700e-01
190 H2 3.0823e+00 4.0846e+00 8.0318e+00 HW 57 WAT_57 4.1700e-01
191 O 1.0558e+01 5.1306e+00 1.9061e+00 OW 58 WAT_58 -8.3400e-01
192 H1 9.6182e+00 5.2920e+00 1.9914e+00 HW 58 WAT_58 4.1700e-01
193 H2 1.0876e+01 5.8492e+00 1.3597e+00 HW 58 WAT_58 4.1700e-01
194 O 8.0954e+00 1.8741e+00 1.3039e+01 OW 59 WAT_59 -8.3400e-01
195 H1 7.6472e+00 1.8965e+00 1.2193e+01 HW 59 WAT_59 4.1700e-01
196 H2 7.4620e+00 1.4760e+00 1.3636e+01 HW 59 WAT_59 4.1700e-01
197 O 5.7151e-01 1.2493e+01 1.3538e+01 OW 60 WAT_60 -8.3400e-01
198 H1 7.3462e-01 1.2023e+01 1.2720e+01 HW 60 WAT_60 4.1700e-01
199 H2 1.0368e+00 1.1985e+01 1.4203e+01 HW 60 WAT_60 4.1700e-01
200 O 8.4593e+00 1.2445e+00 3.4550e+00 OW 61 WAT_61 -8.3400e-01
201 H1 7.8347e+00 1.2405e+00 4.1804e+00 HW 61 WAT_61 4.1700e-01
202 H2 8.3723e+00 3.7757e-01 3.0586e+00 HW 61 WAT_61 4.1700e-01
203 O 4.5000e+00 3.3058e+00 1.1849e+01 OW 62 WAT_62 -8.3400e-01
204 H1 4.8417e+00 4.1500e+00 1.1554e+01 HW 62 WAT_62 4.1700e-01
205 H2 3.5616e+00 3.4542e+00 1.1965e+01 HW 62 WAT_62 4.1700e-01
206 O 1.0092e+01 1.0131e+01 9.5474e+00 OW 63 WAT_63 -8.3400e-01
207 H1 9.3164e+00 9.6510e+00 9.8373e+00 HW 63 WAT_63 4.1700e-01
208 H2 1.0743e+01 9.4516e+00 9.3730e+00 HW 63 WAT_63 4.1700e-01
209 O 1.2777e+01 9.6596e+00 2.4202e+00 OW 64 WAT_64 -8.3400e-01
210 H1 1.3216e+01 8.8219e+00 2.2740e+00 HW 64 WAT_64 4.1700e-01
211 H2 1.3490e+01 1.0293e+01 2.5066e+00 HW 64 WAT_64 4.1700e-01
212 O 1.2805e+01 1.5435e-01 8.1492e+00 OW 65 WAT_65 -8.3400e-01
213 H1 1.3408e+01 7.2637e-01 8.6240e+00 HW 65 WAT_65 4.1700e-01
214 H2 1.2064e+01 7.1830e-01 7.9266e+00 HW 65 WAT_65 4.1700e-01
215 O 5.5752e+00 6.4442e+00 6.4984e-02 OW 66 WAT_66 -8.3400e-01
216 H1 5.3741e+00 5.5809e+00 4.2632e-01 HW 66 WAT_66 4.1700e-01
217 H2 5.4044e+00 6.3575e+00 -8.7286e-01 HW 66 WAT_66 4.1700e-01
218 O 1.2365e+01 6.7531e+00 4.9016e+00 OW 67 WAT_67 -8.3400e-01
219 H1 1.1765e+01 7.4767e+00 4.7180e+00 HW 67 WAT_67 4.1700e-01
220 H2 1.2913e+01 6.6908e+00 4.1193e+00 HW 67 WAT_67 4.1700e-01
221 O 9.1704e+00 7.2323e+00 1.3296e+01 OW 68 WAT_68 -8.3400e-01
222 H1 9.6689e+00 7.7069e+00 1.3961e+01 HW 68 WAT_68 4.1700e-01
223 H2 9.3127e+00 6.3086e+00 1.3503e+01 HW 68 WAT_68 4.1700e-01
224 O 7.8157e+00 9.9832e+00 5.3887e+00 OW 69 WAT_69 -8.3400e-01
225 H1 8.2720e+00 1.0794e+01 5.6147e+00 HW 69 WAT_69 4.1700e-01
226 H2 7.4645e+00 9.6655e+00 6.2205e+00 HW 69 WAT_69 4.1700e-01
227 O 8.1828e+00 7.9404e-01 8.1734e+00 OW 70 WAT_70 -8.3400e-01
228 H1 8.4903e+00 2.3873e-01 7.4570e+00 HW 70 WAT_70 4.1700e-01
229 H2 7.2529e+00 9.2849e-01 7.9907e+00 HW 70 WAT_70 4.1700e-01
230 O 6.1766e+00 9.3854e+00 7.6914e+00 OW 71 WAT_71 -8.3400e-01
231 H1 5.7723e+00 8.6731e+00 7.1960e+00 HW 71 WAT_71 4.1700e-01
232 H2 6.2629e+00 9.0407e+00 8.5802e+00 HW 71 WAT_71 4.1700e-01
233 O 1.1012e+01 1.1412e+01 1.2226e+00 OW 72 WAT_72 -8.3400e-01
234 H1 1.0463e+01 1.1859e+01 1.8669e+00 HW 72 WAT_72 4.1700e-01
235 H2 1.1634e+01 1.0907e+01 1.7464e+00 HW 72 WAT_72 4.1700e-01
236 O 7.7715e+00 1.2350e+01 6.1844e-01 OW 73 WAT_73 -8.3400e-01
237 H1 7.6666e+00 1.1735e+01 1.3446e+00 HW 73 WAT_73 4.1700e-01
238 H2 7.6040e+00 1.1826e+01 -1.6526e-01 HW 73 WAT_73 4.1700e-01
239 O 1.4636e-01 6.2264e+00 3.3774e+00 OW 74 WAT_74 -8.3400e-01
240 H1 -7.5724e-01 6.4894e+00 3.2025e+00 HW 74 WAT_74 4.1700e-01
241 H2 6.3042e-01 6.4975e+00 2.5974e+00 HW 74 WAT_74 4.1700e-01
242 O 4.6570e+00 1.1631e+01 7.7318e+00 OW 75 WAT_75 -8.3400e-01
243 H1 5.1748e+00 1.0827e+01 7.6775e+00 HW 75 WAT_75 4.1700e-01
244 H2 4.2054e+00 1.1569e+01 8.5735e+00 HW 75 WAT_75 4.1700e-01
245 O 9.5331e+00 1.2807e+01 9.5544e+00 OW 76 WAT_76 -8.3400e-01
246 H1 9.4639e+00 1.1866e+01 9.3933e+00 HW 76 WAT_76 4.1700e-01
247 H2 1.0295e+01 1.2897e+01 1.0127e+01 HW 76 WAT_76 4.1700e-01
248 O 5.3434e+00 1.6234e+00 8.5744e+00 OW 77 WAT_77 -8.3400e-01
249 H1 4.9002e+00 2.4044e+00 8.2429e+00 HW 77 WAT_77 4.1700e-01
250 H2 5.9019e+00 1.9464e+00 9.2815e+00 HW 77 WAT_77 4.1700e-01
251 O 1.0564e+01 5.6138e+00 9.7813e+00 OW 78 WAT_78 -8.3400e-01
252 H1 1.0940e+01 4.7410e+00 9.6687e+00 HW 78 WAT_78 4.1700e-01
253 H2 1.0466e+01 5.9496e+00 8.8904e+00 HW 78 WAT_78 4.1700e-01
254 O 6.0688e+00 1.1234e+01 1.2019e+01 OW 79 WAT_79 -8.3400e-01
255 H1 5.7357e+00 1.1861e+01 1.2661e+01 HW 79 WAT_79 4.1700e-01
256 H2 6.2455e+00 1.1761e+01 1.1239e+01 HW 79 WAT_79 4.1700e-01
257 O 7.4902e-03 1.9795e+00 9.1550e+00 OW 80 WAT_80 -8.3400e-01
258 H1 -2.8120e-01 2.5498e+00 9.8675e+00 HW 80 WAT_80 4.1700e-01
259 H2 7.5207e-01 1.5000e+00 9.5181e+00 HW 80 WAT_80 4.1700e-01
260 O 3.3965e+00 1.2848e+01 8.8575e-01 OW 81 WAT_81 -8.3400e-01
261 H1 3.8340e+00 1.3391e+01 1.5415e+00 HW 81 WAT_81 4.1700e-01
262 H2 3.8813e+00 1.2023e+01 8.9539e-01 HW 81 WAT_81 4.1700e-01
263 O 4.1088e+00 1.0443e+01 1.0425e+01 OW 82 WAT_82 -8.3400e-01
264 H1 3.2773e+00 1.0188e+01 1.0825e+01 HW 82 WAT_82 4.1700e-01
265 H2 4.7169e+00 1.0514e+01 1.1161e+01 HW 82 WAT_82 4.1700e-01
266 O 2.0257e+00 5.8747e-01 1.0229e+01 OW 83 WAT_83 -8.3400e-01
267 H1 2.6733e+00 3.7212e-02 9.7888e+00 HW 83 WAT_83 4.1700e-01
268 H2 2.4459e+00 8.4179e-01 1.1051e+01 HW 83 WAT_83 4.1700e-01
269 O 9.3255e-01 9.0165e+00 -1.1340e+01 OW 84 WAT_84 -8.3400e-01
270 H1 2.7743e-01 8.7476e+00 -1.1984e+01 HW 84 WAT_84 4.1700e-01
271 H2 1.7703e+00 8.9069e+00 -1.1789e+01 HW 84 WAT_84 4.1700e-01
272 O 8.3026e+00 3.4901e+00 -1.1863e+01 OW 85 WAT_85 -8.3400e-01
273 H1 7.4900e+00 3.1158e+00 -1.2204e+01 HW 85 WAT_85 4.1700e-01
274 H2 8.8067e+00 2.7346e+00 -1.1561e+01 HW 85 WAT_85 4.1700e-01
275 O 1.0571e+01 8.8589e+00 -1.3865e+01 OW 86 WAT_86 -8.3400e-01
276 H1 9.6438e+00 8.7927e+00 -1.3636e+01 HW 86 WAT_86 4.1700e-01
277 H2 1.0723e+01 9.7969e+00 -1.3979e+01 HW 86 WAT_86 4.1700e-01
278 O 6.0851e+00 7.7565e+00 -5.2771e+00 OW 87 WAT_87 -8.3400e-01
279 H1 5.7808e+00 8.6357e+00 -5.0521e+00 HW 87 WAT_87 4.1700e-01
280 H2 7.0397e+00 7.8165e+00 -5.2414e+00 HW 87 WAT_87 4.1700e-01
281 O 1.0971e+01 5.3895e+00 -1.1842e+01 OW 88 WAT_88 -8.3400e-01
282 H1 1.1364e+01 5.7067e+00 -1.2656e+01 HW 88 WAT_88 4.1700e-01
283 H2 1.1333e+01 4.5106e+00 -1.1728e+01 HW 88 WAT_88 4.1700e-01
284 O 1.2210e+01 4.5783e+00 -5.7026e+00 OW 89 WAT_89 -8.3400e-01
285 H1 1.2578e+01 3.7578e+00 -5.3747e+00 HW 89 WAT_89 4.1700e-01
286 H2 1.1350e+01 4.6385e+00 -5.2870e+00 HW 89 WAT_89 4.1700e-01
287 O 2.1414e+00 8.5968e+00 -4.1300e+00 OW 90 WAT_90 -8.3400e-01
288 H1 1.7829e+00 9.2621e+00 -3.5426e+00 HW 90 WAT_90 4.1700e-01
289 H2 1.8469e+00 7.7651e+00 -3.7587e+00 HW 90 WAT_90 4.1700e-01
290 O 1.1960e+01 8.3531e+00 -1.1108e+01 OW 91 WAT_91 -8.3400e-01
291 H1 1.1880e+01 7.4386e+00 -1.1379e+01 HW 91 WAT_91 4.1700e-01
292 H2 1.1547e+01 8.8498e+00 -1.1814e+01 HW 91 WAT_91 4.1700e-01
293 O 1.2670e+01 1.5445e-01 -6.3144e+00 OW 92 WAT_92 -8.3400e-01
294 H1 1.1796e+01 4.8796e-01 -6.5171e+00 HW 92 WAT_92 4.1700e-01
295 H2 1.2561e+01 -3.1823e-01 -5.4892e+00 HW 92 WAT_92 4.1700e-01
296 O 1.1726e+01 7.2113e+00 -1.3668e+00 OW 93 WAT_93 -8.3400e-01
297 H1 1.2051e+01 6.3777e+00 -1.7066e+00 HW 93 WAT_93 4.1700e-01
298 H2 1.2514e+01 7.7342e+00 -1.2190e+00 HW 93 WAT_93 4.1700e-01
299 O 7.5448e+00 5.8126e+00 -1.3478e+01 OW 94 WAT_94 -8.3400e-01
300 H1 6.8364e+00 6.2812e+00 -1.3037e+01 HW 94 WAT_94 4.1700e-01
301 H2 7.8292e+00 5.1548e+00 -1.2844e+01 HW 94 WAT_94 4.1700e-01
302 O 1.1929e+01 1.5912e+00 -2.6413e+00 OW 95 WAT_95 -8.3400e-01
303 H1 1.2543e+01 1.9092e+00 -3.3032e+00 HW 95 WAT_95 4.1700e-01
304 H2 1.2474e+01 1.1061e+00 -2.0217e+00 HW 95 WAT_95 4.1700e-01
305 O 1.2424e+01 4.6598e+00 -2.2397e+00 OW 96 WAT_96 -8.3400e-01
306 H1 1.1736e+01 3.9980e+00 -2.3047e+00 HW 96 WAT_96 4.1700e-01
307 H2 1.3145e+01 4.2137e+00 -1.7949e+00 HW 96 WAT_96 4.1700e-01
308 O 1.0754e+01 1.1030e+01 -3.0009e+00 OW 97 WAT_97 -8.3400e-01
309 H1 1.0688e+01 1.0110e+01 -3.2551e+00 HW 97 WAT_97 4.1700e-01
310 H2 1.0124e+01 1.1128e+01 -2.2864e+00 HW 97 WAT_97 4.1700e-01
311 O 5.2807e+00 1.3202e+01 -4.9402e+00 OW 98 WAT_98 -8.3400e-01
312 H1 5.8981e+00 1.3878e+01 -5.2217e+00 HW 98 WAT_98 4.1700e-01
313 H2 4.4200e+00 1.3611e+01 -5.0314e+00 HW 98 WAT_98 4.1700e-01
314 O 1.3177e+01 9.0548e+00 -5.1543e+00 OW 99 WAT_99 -8.3400e-01
315 H1 1.2650e+01 9.5791e+00 -5.7578e+00 HW 99 WAT_99 4.1700e-01
316 H2 1.3520e+01 9.6876e+00 -4.5234e+00 HW 99 WAT_99 4.1700e-01
317 O 1.1557e+01 7.9800e+00 -7.7473e+00 OW 100 WAT_100 -8.3400e-01
318 H1 1.0825e+01 8.4887e+00 -7.3983e+00 HW 100 WAT_100 4.1700e-01
319 H2 1.1159e+01 7.1630e+00 -8.0484e+00 HW 100 WAT_100 4.1700e-01
320 O 8.5014e+00 1.0770e+01 -5.1144e+00 OW 101 WAT_101 -8.3400e-01
321 H1 8.9202e+00 1.1613e+01 -5.2867e+00 HW 101 WAT_101 4.1700e-01
322 H2 7.5823e+00 1.0907e+01 -5.3437e+00 HW 101 WAT_101 4.1700e-01
323 O 8.5130e+00 1.2979e+01 -1.2998e+01 OW 102 WAT_102 -8.3400e-01
324 H1 9.2001e+00 1.3526e+01 -1.2617e+01 HW 102 WAT_102 4.1700e-01
325 H2 7.7262e+00 1.3523e+01 -1.2963e+01 HW 102 WAT_102 4.1700e-01
326 O 1.7238e+00 3.4122e+00 -6.8943e+00 OW 103 WAT_103 -8.3400e-01
327 H1 1.5440e+00 2.5148e+00 -6.6140e+00 HW 103 WAT_103 4.1700e-01
328 H2 1.3218e+00 3.9594e+00 -6.2196e+00 HW 103 WAT_103 4.1700e-01
329 O 5.1348e+00 6.7468e+00 -1.2472e+01 OW 104 WAT_104 -8.3400e-01
330 H1 4.9089e+00 6.5305e+00 -1.1567e+01 HW 104 WAT_104 4.1700e-01
331 H2 4.3541e+00 7.1796e+00 -1.2817e+01 HW 104 WAT_104 4.1700e-01
332 O 2.8770e+00 8.2799e+00 -1.3582e+01 OW 105 WAT_105 -8.3400e-01
333 H1 2.7568e+00 9.0061e+00 -1.4194e+01 HW 105 WAT_105 4.1700e-01
334 H2 2.5671e+00 7.5102e+00 -1.4059e+01 HW 105 WAT_105 4.1700e-01
335 O 1.0838e+01 8.5011e+00 -3.7306e+00 OW 106 WAT_106 -8.3400e-01
336 H1 1.0957e+01 7.9052e+00 -2.9911e+00 HW 106 WAT_106 4.1700e-01
337 H2 1.1697e+01 8.5381e+00 -4.1505e+00 HW 106 WAT_106 4.1700e-01
338 O 1.0417e+01 1.0714e+00 -7.3751e+00 OW 107 WAT_107 -8.3400e-01
339 H1 9.6343e+00 1.5460e+00 -7.0954e+00 HW 107 WAT_107 4.1700e-01
340 H2 1.0123e+01 1.6692e-01 -7.4838e+00 HW 107 WAT_107 4.1700e-01
341 O 1.9701e+00 9.4017e+00 -6.7992e+00 OW 108 WAT_108 -8.3400e-01
342 H1 2.3374e+00 9.3145e+00 -5.9196e+00 HW 108 WAT_108 4.1700e-01
343 H2 1.4012e+00 8.6384e+00 -6.8985e+00 HW 108 WAT_108 4.1700e-01
344 O 4.8894e+00 6.1597e+00 -7.3030e+00 OW 109 WAT_109 -8.3400e-01
345 H1 5.4409e+00 6.2693e+00 -8.0777e+00 HW 109 WAT_109 4.1700e-01
346 H2 5.4038e+00 6.5335e+00 -6.5875e+00 HW 109 WAT_109 4.1700e-01
347 O 7.6047e+00 5.0433e+00 -2.4730e+00 OW 110 WAT_110 -8.3400e-01
348 H1 8.1946e+00 4.7349e+00 -1.7852e+00 HW 110 WAT_110 4.1700e-01
349 H2 6.7867e+00 4.5712e+00 -2.3170e+00 HW 110 WAT_110 4.1700e-01
350 O 1.2019e+01 3.4334e+00 -8.3350e+00 OW 111 WAT_111 -8.3400e-01
351 H1 1.2036e+01 3.8843e+00 -7.4908e+00 HW 111 WAT_111 4.1700e-01
352 H2 1.1771e+01 2.5340e+00 -8.1217e+00 HW 111 WAT_111 4.1700e-01
353 O 3.7169e+00 3.2697e-01 -1.2913e+01 OW 112 WAT_112 -8.3400e-01
354 H1 3.5884e+00 3.1876e-01 -1.1965e+01 HW 112 WAT_112 4.1700e-01
355 H2 2.8931e+00 6.6528e-01 -1.3264e+01 HW 112 WAT_112 4.1700e-01
356 O 1.1206e+01 1.1707e+01 -1.3433e+01 OW 113 WAT_113 -8.3400e-01
357 H1 1.0587e+01 1.2172e+01 -1.3997e+01 HW 113 WAT_113 4.1700e-01
358 H2 1.1718e+01 1.2399e+01 -1.3016e+01 HW 113 WAT_113 4.1700e-01
359 O 6.3275e+00 1.6401e+00 -1.3259e+01 OW 114 WAT_114 -8.3400e-01
360 H1 5.6978e+00 9.3883e-01 -1.3092e+01 HW 114 WAT_114 4.1700e-01
361 H2 5.7880e+00 2.4005e+00 -1.3476e+01 HW 114 WAT_114 4.1700e-01
362 O 5.7366e+00 1.2810e+01 -2.2682e+00 OW 115 WAT_115 -8.3400e-01
363 H1 4.8394e+00 1.3034e+01 -2.0209e+00 HW 115 WAT_115 4.1700e-01
364 H2 5.7619e+00 1.2934e+01 -3.2171e+00 HW 115 WAT_115 4.1700e-01
365 O 2.9015e+00 7.7713e+00 -8.1553e-01 OW 116 WAT_116 -8.3400e-01
366 H1 2.9420e+00 7.4727e+00 9.2992e-02 HW 116 WAT_116 4.1700e-01
367 H2 3.7560e+00 8.1721e+00 -9.7478e-01 HW 116 WAT_116 4.1700e-01
368 O 7.9943e+00 4.6554e+00 -9.3421e+00 OW 117 WAT_117 -8.3400e-01
369 H1 7.9979e+00 4.2144e+00 -1.0192e+01 HW 117 WAT_117 4.1700e-01
370 H2 8.8894e+00 4.9772e+00 -9.2349e+00 HW 117 WAT_117 4.1700e-01
371 O 4.8128e-01 8.0037e+00 -8.6812e+00 OW 118 WAT_118 -8.3400e-01
372 H1 1.0529e+00 7.2360e+00 -8.6808e+00 HW 118 WAT_118 4.1700e-01
373 H2 4.8143e-01 8.3026e+00 -9.5905e+00 HW 118 WAT_118 4.1700e-01
374 O 6.6447e+00 1.3072e+01 -8.9190e+00 OW 119 WAT_119 -8.3400e-01
375 H1 6.3476e+00 1.2467e+01 -9.5982e+00 HW 119 WAT_119 4.1700e-01
376 H2 7.5947e+00 1.3110e+01 -9.0301e+00 HW 119 WAT_119 4.1700e-01
377 O 5.1556e-01 1.1451e+01 -7.7754e+00 OW 120 WAT_120 -8.3400e-01
378 H1 5.9360e-01 1.1586e+01 -8.7198e+00 HW 120 WAT_120 4.1700e-01
379 H2 1.1297e+00 1.0743e+01 -7.5826e+00 HW 120 WAT_120 4.1700e-01
380 O 4.6941e+00 3.9863e+00 -1.3531e+01 OW 121 WAT_121 -8.3400e-01
381 H1 4.8008e+00 4.8867e+00 -1.3224e+01 HW 121 WAT_121 4.1700e-01
382 H2 3.7834e+00 3.9381e+00 -1.3822e+01 HW 121 WAT_121 4.1700e-01
383 O 1.7603e+00 1.3151e+01 -1.1365e+01 OW 122 WAT_122 -8.3400e-01
384 H1 1.3531e+00 1.3293e+01 -1.2219e+01 HW 122 WAT_122 4.1700e-01
385 H2 2.6516e+00 1.2867e+01 -1.1568e+01 HW 122 WAT_122 4.1700e-01
386 O 1.2427e+01 1.2219e+01 -1.0405e+01 OW 123 WAT_123 -8.3400e-01
387 H1 1.2779e+01 1.1622e+01 -1.1065e+01 HW 123 WAT_123 4.1700e-01
388 H2 1.1543e+01 1.1893e+01 -1.0234e+01 HW 123 WAT_123 4.1700e-01
389 O 1.1592e+00 3.4600e+00 -1.1466e+01 OW 124 WAT_124 -8.3400e-01
390 H1 8.7386e-01 3.0956e+00 -1.0628e+01 HW 124 WAT_124 4.1700e-01
391 H2 1.0971e+00 2.7280e+00 -1.2080e+01 HW 124 WAT_124 4.1700e-01
392 O 7.3810e+00 2.1681e+00 -8.3410e+00 OW 125 WAT_125 -8.3400e-01
393 H1 7.6782e+00 3.0744e+00 -8.4217e+00 HW 125 WAT_125 4.1700e-01
394 H2 7.9295e+00 1.6800e+00 -8.9550e+00 HW 125 WAT_125 4.1700e-01
395 O 8.2951e+00 8.7156e+00 -7.5955e+00 OW 126 WAT_126 -8.3400e-01
396 H1 8.6621e+00 8.2415e+00 -6.8494e+00 HW 126 WAT_126 4.1700e-01
397 H2 8.1056e+00 9.5898e+00 -7.2547e+00 HW 126 WAT_126 4.1700e-01
398 O 1.1576e+01 2.5377e+00 -1.2038e+01 OW 127 WAT_127 -8.3400e-01
399 H1 1.1453e+01 2.5563e+00 -1.2988e+01 HW 127 WAT_127 4.1700e-01
400 H2 1.2525e+01 2.5856e+00 -1.1919e+01 HW 127 WAT_127 4.1700e-01
401 O 4.5637e+00 9.6817e+00 -3.6925e+00 OW 128 WAT_128 -8.3400e-01
402 H1 4.4245e+00 1.0554e+01 -3.3238e+00 HW 128 WAT_128 4.1700e-01
403 H2 3.6818e+00 9.3389e+00 -3.8377e+00 HW 128 WAT_128 4.1700e-01
404 O 2.3424e+00 5.9082e+00 -8.2860e+00 OW 129 WAT_129 -8.3400e-01
405 H1 3.0234e+00 6.1721e+00 -7.6673e+00 HW 129 WAT_129 4.1700e-01
406 H2 2.0272e+00 5.0683e+00 -7.9522e+00 HW 129 WAT_129 4.1700e-01
407 O 6.5349e+00 6.9550e+00 -9.1988e+00 OW 130 WAT_130 -8.3400e-01
408 H1 7.0427e+00 7.4531e+00 -8.5583e+00 HW 130 WAT_130 4.1700e-01
409 H2 7.0662e+00 6.1785e+00 -9.3748e+00 HW 130 WAT_130 4.1700e-01
410 O 3.8446e+00 4.5381e+00 -1.0383e+01 OW 131 WAT_131 -8.3400e-01
411 H1 3.5046e+00 5.0156e+00 -9.6259e+00 HW 131 WAT_131 4.1700e-01
412 H2 3.0823e+00 4.0846e+00 -1.0743e+01 HW 131 WAT_131 4.1700e-01
413 O 8.0954e+00 1.8741e+00 -5.7356e+00 OW 132 WAT_132 -8.3400e-01
414 H1 7.6472e+00 1.8965e+00 -6.5811e+00 HW 132 WAT_132 4.1700e-01
415 H2 7.4620e+00 1.4760e+00 -5.1386e+00 HW 132 WAT_132 4.1700e-01
416 O 5.7151e-01 1.2493e+01 -5.2360e+00 OW 133 WAT_133 -8.3400e-01
417 H1 7.3462e-01 1.2023e+01 -6.0540e+00 HW 133 WAT_133 4.1700e-01
418 H2 1.0368e+00 1.1985e+01 -4.5711e+00 HW 133 WAT_133 4.1700e-01
419 O 4.5000e+00 3.3058e+00 -6.9254e+00 OW 134 WAT_134 -8.3400e-01
420 H1 4.8417e+00 4.1500e+00 -7.2200e+00 HW 134 WAT_134 4.1700e-01
421 H2 3.5616e+00 3.4542e+00 -6.8089e+00 HW 134 WAT_134 4.1700e-01
422 O 9.2803e+00 4.1402e+00 -5.8271e-01 OW 135 WAT_135 -8.3400e-01
423 H1 8.5901e+00 3.9474e+00 5.1903e-02 HW 135 WAT_135 4.1700e-01
424 H2 1.0024e+01 4.4236e+00 -5.0277e-02 HW 135 WAT_135 4.1700e-01
425 O 1.0092e+01 1.0131e+01 -9.2269e+00 OW 136 WAT_136 -8.3400e-01
426 H1 9.3164e+00 9.6510e+00 -8.9371e+00 HW 136 WAT_136 4.1700e-01
427 H2 1.0743e+01 9.4516e+00 -9.4013e+00 HW 136 WAT_136 4.1700e-01
428 O 7.9230e+00 1.1035e+01 -2.1770e+00 OW 137 WAT_137 -8.3400e-01
429 H1 7.1575e+00 1.1604e+01 -2.2615e+00 HW 137 WAT_137 4.1700e-01
430 H2 8.1046e+00 1.0743e+01 -3.0702e+00 HW 137 WAT_137 4.1700e-01
431 O 1.2805e+01 1.5435e-01 -1.0625e+01 OW 138 WAT_138 -8.3400e-01
432 H1 1.3408e+01 7.2637e-01 -1.0150e+01 HW 138 WAT_138 4.1700e-01
433 H2 1.2064e+01 7.1830e-01 -1.0848e+01 HW 138 WAT_138 4.1700e-01
434 O 9.1704e+00 7.2323e+00 -5.4788e+00 OW 139 WAT_139 -8.3400e-01
435 H1 9.6689e+00 7.7069e+00 -4.8136e+00 HW 139 WAT_139 4.1700e-01
436 H2 9.3127e+00 6.3086e+00 -5.2718e+00 HW 139 WAT_139 4.1700e-01
437 O 7.8157e+00 9.9832e+00 -1.3386e+01 OW 140 WAT_140 -8.3400e-01
438 H1 8.2720e+00 1.0794e+01 -1.3160e+01 HW 140 WAT_140 4.1700e-01
439 H2 7.4645e+00 9.6655e+00 -1.2554e+01 HW 140 WAT_140 4.1700e-01
440 O 8.1828e+00 7.9404e-01 -1.0601e+01 OW 141 WAT_141 -8.3400e-01
441 H1 8.4903e+00 2.3873e-01 -1.1317e+01 HW 141 WAT_141 4.1700e-01
442 H2 7.2529e+00 9.2849e-01 -1.0784e+01 HW 141 WAT_141 4.1700e-01
443 O 6.1766e+00 9.3854e+00 -1.1083e+01 OW 142 WAT_142 -8.3400e-01
444 H1 5.7723e+00 8.6731e+00 -1.1578e+01 HW 142 WAT_142 4.1700e-01
445 H2 6.2629e+00 9.0407e+00 -1.0194e+01 HW 142 WAT_142 4.1700e-01
446 O 9.6304e+00 4.4903e+00 -4.5964e+00 OW 143 WAT_143 -8.3400e-01
447 H1 9.1683e+00 4.6986e+00 -3.7844e+00 HW 143 WAT_143 4.1700e-01
448 H2 9.2282e+00 3.6762e+00 -4.8993e+00 HW 143 WAT_143 4.1700e-01
449 O 2.1454e+00 1.1868e+01 -3.0764e+00 OW 144 WAT_144 -8.3400e-01
450 H1 1.7609e+00 1.1227e+01 -2.4781e+00 HW 144 WAT_144 4.1700e-01
451 H2 2.4566e+00 1.2572e+01 -2.5069e+00 HW 144 WAT_144 4.1700e-01
452 O 4.6570e+00 1.1631e+01 -1.1043e+01 OW 145 WAT_145 -8.3400e-01
453 H1 5.1748e+00 1.0827e+01 -1.1097e+01 HW 145 WAT_145 4.1700e-01
454 H2 4.2054e+00 1.1569e+01 -1.0201e+01 HW 145 WAT_145 4.1700e-01
455 O 9.5331e+00 1.2807e+01 -9.2199e+00 OW 146 WAT_146 -8.3400e-01
456 H1 9.4639e+00 1.1866e+01 -9.3810e+00 HW 146 WAT_146 4.1700e-01
457 H2 1.0295e+01 1.2897e+01 -8.6477e+00 HW 146 WAT_146 4.1700e-01
458 O 5.3434e+00 1.6234e+00 -1.0200e+01 OW 147 WAT_147 -8.3400e-01
459 H1 4.9002e+00 2.4044e+00 -1.0531e+01 HW 147 WAT_147 4.1700e-01
460 H2 5.9019e+00 1.9464e+00 -9.4928e+00 HW 147 WAT_147 4.1700e-01
461 O 1.5217e+00 6.3126e+00 -2.8933e+00 OW 148 WAT_148 -8.3400e-01
462 H1 6.2735e-01 6.2793e+00 -2.5540e+00 HW 148 WAT_148 4.1700e-01
463 H2 2.0615e+00 6.5113e+00 -2.1282e+00 HW 148 WAT_148 4.1700e-01
464 O 7.5747e+00 7.6453e+00 -1.8058e+00 OW 149 WAT_149 -8.3400e-01
465 H1 7.4791e+00 6.7048e+00 -1.9557e+00 HW 149 WAT_149 4.1700e-01
466 H2 8.4179e+00 7.8668e+00 -2.2010e+00 HW 149 WAT_149 4.1700e-01
467 O 1.0564e+01 5.6138e+00 -8.9930e+00 OW 150 WAT_150 -8.3400e-01
468 H1 1.0940e+01 4.7410e+00 -9.1057e+00 HW 150 WAT_150 4.1700e-01
469 H2 1.0466e+01 5.9496e+00 -9.8840e+00 HW 150 WAT_150 4.1700e-01
470 O 6.0688e+00 1.1234e+01 -6.7551e+00 OW 151 WAT_151 -8.3400e-01
471 H1 5.7357e+00 1.1861e+01 -6.1130e+00 HW 151 WAT_151 4.1700e-01
472 H2 6.2455e+00 1.1761e+01 -7.5349e+00 HW 151 WAT_151 4.1700e-01
473 O 7.4902e-03 1.9795e+00 -9.6194e+00 OW 152 WAT_152 -8.3400e-01
474 H1 -2.8120e-01 2.5498e+00 -8.9069e+00 HW 152 WAT_152 4.1700e-01
475 H2 7.5207e-01 1.5000e+00 -9.2562e+00 HW 152 WAT_152 4.1700e-01
476 O 1.1986e+01 1.3249e+01 -7.0660e-01 OW 153 WAT_153 -8.3400e-01
477 H1 1.1380e+01 1.3272e+01 -1.4470e+00 HW 153 WAT_153 4.1700e-01
478 H2 1.1681e+01 1.2517e+01 -1.6988e-01 HW 153 WAT_153 4.1700e-01
479 O 5.3427e+00 9.0552e+00 -1.2460e+00 OW 154 WAT_154 -8.3400e-01
480 H1 5.0428e+00 9.2009e+00 -2.1432e+00 HW 154 WAT_154 4.1700e-01
481 H2 6.1139e+00 8.4957e+00 -1.3387e+00 HW 154 WAT_154 4.1700e-01
482 O 9.2914e+00 1.9342e+00 -2.2805e+00 OW 155 WAT_155 -8.3400e-01
483 H1 9.2303e+00 2.5264e+00 -1.5310e+00 HW 155 WAT_155 4.1700e-01
484 H2 1.0231e+01 1.8268e+00 -2.4255e+00 HW 155 WAT_155 4.1700e-01
485 O 4.1088e+00 1.0443e+01 -8.3494e+00 OW 156 WAT_156 -8.3400e-01
486 H1 3.2773e+00 1.0188e+01 -7.9497e+00 HW 156 WAT_156 4.1700e-01
487 H2 4.7169e+00 1.0514e+01 -7.6136e+00 HW 156 WAT_156 4.1700e-01
488 O 8.6917e-01 9.6283e+00 -1.7105e+00 OW 157 WAT_157 -8.3400e-01
489 H1 1.3731e+00 9.0491e+00 -1.1389e+00 HW 157 WAT_157 4.1700e-01
490 H2 1.2992e-01 9.9124e+00 -1.1729e+00 HW 157 WAT_157 4.1700e-01
491 O 4.8421e+00 6.3505e+00 -2.8481e+00 OW 158 WAT_158 -8.3400e-01
492 H1 4.3117e+00 5.8596e+00 -3.4757e+00 HW 158 WAT_158 4.1700e-01
493 H2 5.5109e+00 6.7789e+00 -3.3823e+00 HW 158 WAT_158 4.1700e-01
494 O 2.0257e+00 5.8747e-01 -8.5450e+00 OW 159 WAT_159 -8.3400e-01
495 H1 2.6733e+00 3.7212e-02 -8.9855e+00 HW 159 WAT_159 4.1700e-01
496 H2 2.4459e+00 8.4179e-01 -7.7234e+00 HW 159 WAT_159 4.1700e-01
497 O 6.5224e-01 -1.0178e+01 1.2678e+00 OW 160 WAT_160 -8.3400e-01
498 H1 1.5217e+00 -9.8960e+00 1.5514e+00 HW 160 WAT_160 4.1700e-01
499 H2 1.6127e-01 -9.3649e+00 1.1527e+00 HW 160 WAT_160 4.1700e-01
500 O 1.1001e+00 -2.2699e+00 1.1076e+01 OW 161 WAT_161 -8.3400e-01
501 H1 6.6320e-01 -2.0898e+00 1.1908e+01 HW 161 WAT_161 4.1700e-01
502 H2 1.6679e+00 -1.5124e+00 1.0934e+01 HW 161 WAT_161 4.1700e-01
503 O 9.3255e-01 -9.7579e+00 7.4348e+00 OW 162 WAT_162 -8.3400e-01
504 H1 2.7743e-01 -1.0027e+01 6.7908e+00 HW 162 WAT_162 4.1700e-01
505 H2 1.7703e+00 -9.8674e+00 6.9850e+00 HW 162 WAT_162 4.1700e-01
506 O 6.6793e+00 -8.4035e+00 3.1192e+00 OW 163 WAT_163 -8.3400e-01
507 H1 7.1010e+00 -8.5695e+00 3.9623e+00 HW 163 WAT_163 4.1700e-01
508 H2 6.8044e+00 -9.2135e+00 2.6247e+00 HW 163 WAT_163 4.1700e-01
509 O 2.8554e+00 -4.5473e+00 1.3208e+01 OW 164 WAT_164 -8.3400e-01
510 H1 2.1288e+00 -5.1668e+00 1.3140e+01 HW 164 WAT_164 4.1700e-01
511 H2 2.9163e+00 -4.1532e+00 1.2338e+01 HW 164 WAT_164 4.1700e-01
512 O 9.1921e+00 -9.3797e+00 3.6688e-01 OW 165 WAT_165 -8.3400e-01
513 H1 9.7127e+00 -1.0095e+01 9.9373e-04 HW 165 WAT_165 4.1700e-01
514 H2 9.8389e+00 -8.7411e+00 6.6693e-01 HW 165 WAT_165 4.1700e-01
515 O 4.6132e+00 -6.8118e+00 4.0939e+00 OW 166 WAT_166 -8.3400e-01
516 H1 3.8395e+00 -7.3520e+00 3.9338e+00 HW 166 WAT_166 4.1700e-01
517 H2 5.3427e+00 -7.3311e+00 3.7557e+00 HW 166 WAT_166 4.1700e-01
518 O 8.0563e+00 -1.3118e+01 2.4230e+00 OW 167 WAT_167 -8.3400e-01
519 H1 8.1776e+00 -1.3159e+01 3.3715e+00 HW 167 WAT_167 4.1700e-01
520 H2 7.6712e+00 -1.2255e+01 2.2676e+00 HW 167 WAT_167 4.1700e-01
521 O 1.0571e+01 -9.9154e+00 4.9094e+00 OW 168 WAT_168 -8.3400e-01
522 H1 9.6438e+00 -9.9817e+00 5.1383e+00 HW 168 WAT_168 4.1700e-01
523 H2 1.0723e+01 -8.9774e+00 4.7950e+00 HW 168 WAT_168 4.1700e-01
524 O 6.0851e+00 -1.1018e+01 1.3497e+01 OW 169 WAT_169 -8.3400e-01
525 H1 5.7808e+00 -1.0139e+01 1.3722e+01 HW 169 WAT_169 4.1700e-01
526 H2 7.0397e+00 -1.0958e+01 1.3533e+01 HW 169 WAT_169 4.1700e-01
527 O 1.0339e+01 -1.9515e+00 7.9477e+00 OW 170 WAT_170 -8.3400e-01
528 H1 9.7204e+00 -1.4958e+00 7.3772e+00 HW 170 WAT_170 4.1700e-01
529 H2 1.1194e+01 -1.7964e+00 7.5467e+00 HW 170 WAT_170 4.1700e-01
530 O 1.1960e+01 -1.0421e+01 7.6665e+00 OW 171 WAT_171 -8.3400e-01
531 H1 1.1880e+01 -1.1336e+01 7.3956e+00 HW 171 WAT_171 4.1700e-01
532 H2 1.1547e+01 -9.9245e+00 6.9604e+00 HW 171 WAT_171 4.1700e-01
533 O 7.5448e+00 -1.2962e+01 5.2963e+00 OW 172 WAT_172 -8.3400e-01
534 H1 6.8364e+00 -1.2493e+01 5.7376e+00 HW 172 WAT_172 4.1700e-01
535 H2 7.8292e+00 -1.3620e+01 5.9308e+00 HW 172 WAT_172 4.1700e-01
536 O 7.2538e+00 -1.6449e+00 7.5420e-01 OW 173 WAT_173 -8.3400e-01
537 H1 8.0467e+00 -1.3560e+00 3.0238e-01 HW 173 WAT_173 4.1700e-01
538 H2 6.7342e+00 -2.0757e+00 7.5453e-02 HW 173 WAT_173 4.1700e-01
539 O 7.0362e+00 -3.5826e+00 2.6514e+00 OW 174 WAT_174 -8.3400e-01
540 H1 7.0272e+00 -2.8496e+00 2.0358e+00 HW 174 WAT_174 4.1700e-01
541 H2 6.1161e+00 -3.8294e+00 2.7441e+00 HW 174 WAT_174 4.1700e-01
542 O 6.4599e+00 -2.3328e+00 9.9927e+00 OW 175 WAT_175 -8.3400e-01
543 H1 6.9764e+00 -2.9440e+00 9.4675e+00 HW 175 WAT_175 4.1700e-01
544 H2 7.1096e+00 -1.8299e+00 1.0484e+01 HW 175 WAT_175 4.1700e-01
545 O 1.9451e-01 -1.2853e+01 3.6525e-01 OW 176 WAT_176 -8.3400e-01
546 H1 1.1198e-01 -1.1910e+01 5.0675e-01 HW 176 WAT_176 4.1700e-01
547 H2 -1.5718e-01 -1.2995e+01 -5.1352e-01 HW 176 WAT_176 4.1700e-01
548 O 5.7393e-01 -6.3819e+00 2.7149e+00 OW 177 WAT_177 -8.3400e-01
549 H1 1.9672e-01 -5.8932e+00 1.9834e+00 HW 177 WAT_177 4.1700e-01
550 H2 8.3123e-01 -5.7094e+00 3.3455e+00 HW 177 WAT_177 4.1700e-01
551 O 5.2807e+00 -5.5719e+00 1.3834e+01 OW 178 WAT_178 -8.3400e-01
552 H1 5.8981e+00 -4.8968e+00 1.3553e+01 HW 178 WAT_178 4.1700e-01
553 H2 4.4200e+00 -5.1631e+00 1.3743e+01 HW 178 WAT_178 4.1700e-01
554 O 1.3177e+01 -9.7195e+00 1.3620e+01 OW 179 WAT_179 -8.3400e-01
555 H1 1.2650e+01 -9.1952e+00 1.3017e+01 HW 179 WAT_179 4.1700e-01
556 H2 1.3520e+01 -9.0868e+00 1.4251e+01 HW 179 WAT_179 4.1700e-01
557 O 1.1557e+01 -1.0794e+01 1.1027e+01 OW 180 WAT_180 -8.3400e-01
558 H1 1.0825e+01 -1.0286e+01 1.1376e+01 HW 180 WAT_180 4.1700e-01
559 H2 1.1159e+01 -1.1611e+01 1.0726e+01 HW 180 WAT_180 4.1700e-01
560 O 2.5180e+00 -1.3371e+01 4.2092e+00 OW 181 WAT_181 -8.3400e-01
561 H1 1.6296e+00 -1.3030e+01 4.1072e+00 HW 181 WAT_181 4.1700e-01
562 H2 2.8021e+00 -1.3571e+01 3.3173e+00 HW 181 WAT_181 4.1700e-01
563 O 8.5014e+00 -8.0048e+00 1.3660e+01 OW 182 WAT_182 -8.3400e-01
564 H1 8.9202e+00 -7.1616e+00 1.3488e+01 HW 182 WAT_182 4.1700e-01
565 H2 7.5823e+00 -7.8676e+00 1.3431e+01 HW 182 WAT_182 4.1700e-01
566 O 8.5130e+00 -5.7957e+00 5.7761e+00 OW 183 WAT_183 -8.3400e-01
567 H1 9.2001e+00 -5.2488e+00 6.1569e+00 HW 183 WAT_183 4.1700e-01
568 H2 7.7262e+00 -5.2517e+00 5.8111e+00 HW 183 WAT_183 4.1700e-01
569 O 3.3421e+00 -1.0967e+01 1.8282e+00 OW 184 WAT_184 -8.3400e-01
570 H1 3.4225e+00 -1.1915e+01 1.9399e+00 HW 184 WAT_184 4.1700e-01
571 H2 4.2341e+00 -1.0637e+01 1.9343e+00 HW 184 WAT_184 4.1700e-01
572 O 5.1348e+00 -1.2028e+01 6.3026e+00 OW 185 WAT_185 -8.3400e-01
573 H1 4.9089e+00 -1.2244e+01 7.2072e+00 HW 185 WAT_185 4.1700e-01
574 H2 4.3541e+00 -1.1595e+01 5.9572e+00 HW 185 WAT_185 4.1700e-01
575 O 4.6474e+00 -8.4000e+00 1.1449e+00 OW 186 WAT_186 -8.3400e-01
576 H1 5.4137e+00 -8.5119e+00 1.7074e+00 HW 186 WAT_186 4.1700e-01
577 H2 4.7249e+00 -9.0962e+00 4.9258e-01 HW 186 WAT_186 4.1700e-01
578 O 2.8770e+00 -1.0494e+01 5.1921e+00 OW 187 WAT_187 -8.3400e-01
579 H1 2.7568e+00 -9.7682e+00 4.5802e+00 HW 187 WAT_187 4.1700e-01
580 H2 2.5671e+00 -1.1264e+01 4.7149e+00 HW 187 WAT_187 4.1700e-01
581 O 1.0022e+01 -3.5198e+00 1.3139e+00 OW 188 WAT_188 -8.3400e-01
582 H1 1.0123e+01 -3.7234e+00 3.8409e-01 HW 188 WAT_188 4.1700e-01
583 H2 9.1224e+00 -3.7740e+00 1.5187e+00 HW 188 WAT_188 4.1700e-01
584 O 1.9701e+00 -9.3726e+00 1.1975e+01 OW 189 WAT_189 -8.3400e-01
585 H1 2.3374e+00 -9.4599e+00 1.2855e+01 HW 189 WAT_189 4.1700e-01
586 H2 1.4012e+00 -1.0136e+01 1.1876e+01 HW 189 WAT_189 4.1700e-01
587 O 4.8894e+00 -1.2615e+01 1.1471e+01 OW 190 WAT_190 -8.3400e-01
588 H1 5.4409e+00 -1.2505e+01 1.0697e+01 HW 190 WAT_190 4.1700e-01
589 H2 5.4038e+00 -1.2241e+01 1.2187e+01 HW 190 WAT_190 4.1700e-01
590 O 7.0685e+00 -1.0808e+01 1.8213e+00 OW 191 WAT_191 -8.3400e-01
591 H1 6.5002e+00 -1.1256e+01 1.1949e+00 HW 191 WAT_191 4.1700e-01
592 H2 7.7774e+00 -1.0448e+01 1.2878e+00 HW 191 WAT_191 4.1700e-01
593 O 1.2821e+01 -2.0532e+00 6.3793e+00 OW 192 WAT_192 -8.3400e-01
594 H1 1.3277e+01 -2.8342e+00 6.6932e+00 HW 192 WAT_192 4.1700e-01
595 H2 1.3161e+01 -1.3425e+00 6.9234e+00 HW 192 WAT_192 4.1700e-01
596 O 1.1206e+01 -7.0676e+00 5.3409e+00 OW 193 WAT_193 -8.3400e-01
597 H1 1.0587e+01 -6.6027e+00 4.7772e+00 HW 193 WAT_193 4.1700e-01
598 H2 1.1718e+01 -6.3749e+00 5.7579e+00 HW 193 WAT_193 4.1700e-01
599 O 4.5054e+00 -4.4718e+00 2.7420e+00 OW 194 WAT_194 -8.3400e-01
600 H1 3.8763e+00 -4.0033e+00 3.2906e+00 HW 194 WAT_194 4.1700e-01
601 H2 4.6202e+00 -5.3169e+00 3.1766e+00 HW 194 WAT_194 4.1700e-01
602 O 4.0889e+00 -4.2974e+00 1.0621e+01 OW 195 WAT_195 -8.3400e-01
603 H1 4.3917e+00 -5.1876e+00 1.0442e+01 HW 195 WAT_195 4.1700e-01
604 H2 4.8333e+00 -3.7403e+00 1.0393e+01 HW 195 WAT_195 4.1700e-01
605 O 4.8128e-01 -1.0771e+01 1.0093e+01 OW 196 WAT_196 -8.3400e-01
606 H1 1.0529e+00 -1.1538e+01 1.0094e+01 HW 196 WAT_196 4.1700e-01
607 H2 4.8143e-01 -1.0472e+01 9.1839e+00 HW 196 WAT_196 4.1700e-01
608 O 6.6447e+00 -5.7022e+00 9.8553e+00 OW 197 WAT_197 -8.3400e-01
609 H1 6.3476e+00 -6.3076e+00 9.1761e+00 HW 197 WAT_197 4.1700e-01
610 H2 7.5947e+00 -5.6645e+00 9.7443e+00 HW 197 WAT_197 4.1700e-01
611 O 5.1556e-01 -7.3229e+00 1.0999e+01 OW 198 WAT_198 -8.3400e-01
612 H1 5.9360e-01 -7.1881e+00 1.0055e+01 HW 198 WAT_198 4.1700e-01
613 H2 1.1297e+00 -8.0313e+00 1.1192e+01 HW 198 WAT_198 4.1700e-01
614 O 1.7603e+00 -5.6229e+00 7.4096e+00 OW 199 WAT_199 -8.3400e-01
615 H1 1.3531e+00 -5.4815e+00 6.5549e+00 HW 199 WAT_199 4.1700e-01
616 H2 2.6516e+00 -5.9069e+00 7.2067e+00 HW 199 WAT_199 4.1700e-01
617 O 1.2427e+01 -6.5555e+00 8.3691e+00 OW 200 WAT_200 -8.3400e-01
618 H1 1.2779e+01 -7.1527e+00 7.7092e+00 HW 200 WAT_200 4.1700e-01
619 H2 1.1543e+01 -6.8811e+00 8.5399e+00 HW 200 WAT_200 4.1700e-01
620 O 2.6369e+00 -8.3611e+00 3.3960e+00 OW 201 WAT_201 -8.3400e-01
621 H1 2.0297e+00 -7.6212e+00 3.4056e+00 HW 201 WAT_201 4.1700e-01
622 H2 3.1118e+00 -8.2712e+00 2.5699e+00 HW 201 WAT_201 4.1700e-01
623 O 5.2073e+00 -4.8061e+00 5.9980e+00 OW 202 WAT_202 -8.3400e-01
624 H1 4.9068e+00 -4.9296e+00 6.8984e+00 HW 202 WAT_202 4.1700e-01
625 H2 5.1010e+00 -5.6652e+00 5.5895e+00 HW 202 WAT_202 4.1700e-01
626 O 8.2951e+00 -1.0059e+01 1.1179e+01 OW 203 WAT_203 -8.3400e-01
627 H1 8.6621e+00 -1.0533e+01 1.1925e+01 HW 203 WAT_203 4.1700e-01
628 H2 8.1056e+00 -9.1846e+00 1.1520e+01 HW 203 WAT_203 4.1700e-01
629 O 6.0325e+00 -1.4083e+00 5.5218e+00 OW 204 WAT_204 -8.3400e-01
630 H1 5.8567e+00 -2.3248e+00 5.3086e+00 HW 204 WAT_204 4.1700e-01
631 H2 5.1781e+00 -1.0496e+00 5.7616e+00 HW 204 WAT_204 4.1700e-01
632 O 9.5439e+00 -5.8771e+00 3.0045e+00 OW 205 WAT_205 -8.3400e-01
633 H1 9.8855e+00 -5.1329e+00 2.5089e+00 HW 205 WAT_205 4.1700e-01
634 H2 8.7152e+00 -5.5640e+00 3.3670e+00 HW 205 WAT_205 4.1700e-01
635 O 1.0281e+00 -4.7506e+00 4.8058e+00 OW 206 WAT_206 -8.3400e-01
636 H1 1.0209e-01 -4.5085e+00 4.7963e+00 HW 206 WAT_206 4.1700e-01
637 H2 1.4938e+00 -3.9232e+00 4.6843e+00 HW 206 WAT_206 4.1700e-01
638 O 6.1108e-01 -3.1370e+00 8.3378e+00 OW 207 WAT_207 -8.3400e-01
639 H1 9.4139e-01 -4.0048e+00 8.1056e+00 HW 207 WAT_207 4.1700e-01
640 H2 1.0402e+00 -2.9311e+00 9.1683e+00 HW 207 WAT_207 4.1700e-01
641 O 2.3424e+00 -1.2866e+01 1.0488e+01 OW 208 WAT_208 -8.3400e-01
642 H1 3.0234e+00 -1.2602e+01 1.1107e+01 HW 208 WAT_208 4.1700e-01
643 H2 2.0272e+00 -1.3706e+01 1.0822e+01 HW 208 WAT_208 4.1700e-01
644 O 7.0860e+00 -3.3034e+00 1.2738e+01 OW 209 WAT_209 -8.3400e-01
645 H1 6.8451e+00 -3.0359e+00 1.1851e+01 HW 209 WAT_209 4.1700e-01
646 H2 8.0262e+00 -3.1328e+00 1.2793e+01 HW 209 WAT_209 4.1700e-01
647 O 6.5349e+00 -1.1819e+01 9.5756e+00 OW 210 WAT_210 -8.3400e-01
648 H1 7.0427e+00 -1.1321e+01 1.0216e+01 HW 210 WAT_210 4.1700e-01
649 H2 7.0662e+00 -1.2596e+01 9.3995e+00 HW 210 WAT_210 4.1700e-01
650 O 1.0558e+01 -1.3644e+01 1.9061e+00 OW 211 WAT_211 -8.3400e-01
651 H1 9.6182e+00 -1.3482e+01 1.9914e+00 HW 211 WAT_211 4.1700e-01
652 H2 1.0876e+01 -1.2925e+01 1.3597e+00 HW 211 WAT_211 4.1700e-01
653 O 1.0119e+01 -3.2805e+00 1.2618e+01 OW 212 WAT_212 -8.3400e-01
654 H1 1.0763e+01 -3.0746e+00 1.3295e+01 HW 212 WAT_212 4.1700e-01
655 H2 1.0482e+01 -4.0417e+00 1.2165e+01 HW 212 WAT_212 4.1700e-01
656 O 1.0887e+01 -4.1751e+00 6.3884e+00 OW 213 WAT_213 -8.3400e-01
657 H1 1.1326e+01 -3.4327e+00 5.9739e+00 HW 213 WAT_213 4.1700e-01
658 H2 1.0825e+01 -3.9324e+00 7.3123e+00 HW 213 WAT_213 4.1700e-01
659 O 5.7151e-01 -6.2815e+00 1.3538e+01 OW 214 WAT_214 -8.3400e-01
660 H1 7.3462e-01 -6.7510e+00 1.2720e+01 HW 214 WAT_214 4.1700e-01
661 H2 1.0368e+00 -6.7892e+00 1.4203e+01 HW 214 WAT_214 4.1700e-01
662 O 5.3439e+00 -5.8828e-01 2.7374e+00 OW 215 WAT_215 -8.3400e-01
663 H1 6.0758e+00 -8.7236e-01 2.1898e+00 HW 215 WAT_215 4.1700e-01
664 H2 5.6033e+00 -8.2696e-01 3.6273e+00 HW 215 WAT_215 4.1700e-01
665 O 4.1436e+00 -8.1795e-01 8.9316e+00 OW 216 WAT_216 -8.3400e-01
666 H1 4.8798e+00 -1.3664e+00 9.2025e+00 HW 216 WAT_216 4.1700e-01
667 H2 4.5277e+00 4.7648e-02 8.7922e+00 HW 216 WAT_216 4.1700e-01
668 O 1.0092e+01 -8.6433e+00 9.5474e+00 OW 217 WAT_217 -8.3400e-01
669 H1 9.3164e+00 -9.1233e+00 9.8373e+00 HW 217 WAT_217 4.1700e-01
670 H2 1.0743e+01 -9.3228e+00 9.3730e+00 HW 217 WAT_217 4.1700e-01
671 O 1.2777e+01 -9.1147e+00 2.4202e+00 OW 218 WAT_218 -8.3400e-01
672 H1 1.3216e+01 -9.9525e+00 2.2740e+00 HW 218 WAT_218 4.1700e-01
673 H2 1.3490e+01 -8.4818e+00 2.5066e+00 HW 218 WAT_218 4.1700e-01
674 O 5.5752e+00 -1.2330e+01 6.4984e-02 OW 219 WAT_219 -8.3400e-01
675 H1 5.3741e+00 -1.3193e+01 4.2632e-01 HW 219 WAT_219 4.1700e-01
676 H2 5.4044e+00 -1.2417e+01 -8.7286e-01 HW 219 WAT_219 4.1700e-01
677 O 1.2365e+01 -1.2021e+01 4.9016e+00 OW 220 WAT_220 -8.3400e-01
678 H1 1.1765e+01 -1.1298e+01 4.7180e+00 HW 220 WAT_220 4.1700e-01
679 H2 1.2913e+01 -1.2084e+01 4.1193e+00 HW 220 WAT_220 4.1700e-01
680 O 9.1704e+00 -1.1542e+01 1.3296e+01 OW 221 WAT_221 -8.3400e-01
681 H1 9.6689e+00 -1.1067e+01 1.3961e+01 HW 221 WAT_221 4.1700e-01
682 H2 9.3127e+00 -1.2466e+01 1.3503e+01 HW 221 WAT_221 4.1700e-01
683 O 9.1994e+00 -1.4419e+00 1.0820e+01 OW 222 WAT_222 -8.3400e-01
684 H1 9.4872e+00 -1.6965e+00 9.9429e+00 HW 222 WAT_222 4.1700e-01
685 H2 9.7118e+00 -1.9942e+00 1.1410e+01 HW 222 WAT_222 4.1700e-01
686 O 1.3554e+01 -1.1882e+00 3.7447e+00 OW 223 WAT_223 -8.3400e-01
687 H1 1.3394e+01 -1.4779e+00 4.6428e+00 HW 223 WAT_223 4.1700e-01
688 H2 1.3388e+01 -1.9642e+00 3.2092e+00 HW 223 WAT_223 4.1700e-01
689 O 7.8157e+00 -8.7911e+00 5.3887e+00 OW 224 WAT_224 -8.3400e-01
690 H1 8.2720e+00 -7.9806e+00 5.6147e+00 HW 224 WAT_224 4.1700e-01
691 H2 7.4645e+00 -9.1088e+00 6.2205e+00 HW 224 WAT_224 4.1700e-01
692 O 6.1766e+00 -9.3890e+00 7.6914e+00 OW 225 WAT_225 -8.3400e-01
693 H1 5.7723e+00 -1.0101e+01 7.1960e+00 HW 225 WAT_225 4.1700e-01
694 H2 6.2629e+00 -9.7336e+00 8.5802e+00 HW 225 WAT_225 4.1700e-01
695 O 1.1012e+01 -7.3626e+00 1.2226e+00 OW 226 WAT_226 -8.3400e-01
696 H1 1.0463e+01 -6.9156e+00 1.8669e+00 HW 226 WAT_226 4.1700e-01
697 H2 1.1634e+01 -7.8677e+00 1.7464e+00 HW 226 WAT_226 4.1700e-01
698 O 7.7715e+00 -6.4246e+00 6.1844e-01 OW 227 WAT_227 -8.3400e-01
699 H1 7.6666e+00 -7.0393e+00 1.3446e+00 HW 227 WAT_227 4.1700e-01
700 H2 7.6040e+00 -6.9480e+00 -1.6526e-01 HW 227 WAT_227 4.1700e-01
701 O 1.4636e-01 -1.2548e+01 3.3774e+00 OW 228 WAT_228 -8.3400e-01
702 H1 -7.5724e-01 -1.2285e+01 3.2025e+00 HW 228 WAT_228 4.1700e-01
703 H2 6.3042e-01 -1.2277e+01 2.5974e+00 HW 228 WAT_228 4.1700e-01
704 O 4.6570e+00 -7.1437e+00 7.7318e+00 OW 229 WAT_229 -8.3400e-01
705 H1 5.1748e+00 -7.9469e+00 7.6775e+00 HW 229 WAT_229 4.1700e-01
706 H2 4.2054e+00 -7.2058e+00 8.5735e+00 HW 229 WAT_229 4.1700e-01
707 O 9.5331e+00 -5.9676e+00 9.5544e+00 OW 230 WAT_230 -8.3400e-01
708 H1 9.4639e+00 -6.9086e+00 9.3933e+00 HW 230 WAT_230 4.1700e-01
709 H2 1.0295e+01 -5.8775e+00 1.0127e+01 HW 230 WAT_230 4.1700e-01
710 O 1.1392e+01 -5.2773e+00 1.1336e+01 OW 231 WAT_231 -8.3400e-01
711 H1 1.2034e+01 -5.9780e+00 1.1449e+01 HW 231 WAT_231 4.1700e-01
712 H2 1.1917e+01 -4.4974e+00 1.1155e+01 HW 231 WAT_231 4.1700e-01
713 O 8.6640e+00 -1.0011e+00 6.0087e+00 OW 232 WAT_232 -8.3400e-01
714 H1 8.9181e+00 -1.0390e+00 5.0866e+00 HW 232 WAT_232 4.1700e-01
715 H2 7.7152e+00 -1.1278e+00 6.0015e+00 HW 232 WAT_232 4.1700e-01
716 O 6.0688e+00 -7.5400e+00 1.2019e+01 OW 233 WAT_233 -8.3400e-01
717 H1 5.7357e+00 -6.9131e+00 1.2661e+01 HW 233 WAT_233 4.1700e-01
718 H2 6.2455e+00 -7.0138e+00 1.1239e+01 HW 233 WAT_233 4.1700e-01
719 O 9.7569e+00 -1.2986e+00 2.6571e+00 OW 234 WAT_234 -8.3400e-01
720 H1 1.0652e+01 -9.6007e-01 2.6789e+00 HW 234 WAT_234 4.1700e-01
721 H2 9.7887e+00 -2.0206e+00 2.0295e+00 HW 234 WAT_234 4.1700e-01
722 O 3.3965e+00 -5.9259e+00 8.8575e-01 OW 235 WAT_235 -8.3400e-01
723 H1 3.8340e+00 -5.3829e+00 1.5415e+00 HW 235 WAT_235 4.1700e-01
724 H2 3.8813e+00 -6.7512e+00 8.9539e-01 HW 235 WAT_235 4.1700e-01
725 O 4.1088e+00 -8.3314e+00 1.0425e+01 OW 236 WAT_236 -8.3400e-01
726 H1 3.2773e+00 -8.5865e+00 1.0825e+01 HW 236 WAT_236 4.1700e-01
727 H2 4.7169e+00 -8.2603e+00 1.1161e+01 HW 236 WAT_236 4.1700e-01
728 O 1.1001e+00 -2.2699e+00 -7.6984e+00 OW 237 WAT_237 -8.3400e-01
729 H1 6.6320e-01 -2.0898e+00 -6.8660e+00 HW 237 WAT_237 4.1700e-01
730 H2 1.6679e+00 -1.5124e+00 -7.8402e+00 HW 237 WAT_237 4.1700e-01
731 O 9.3255e-01 -9.7579e+00 -1.1340e+01 OW 238 WAT_238 -8.3400e-01
732 H1 2.7743e-01 -1.0027e+01 -1.1984e+01 HW 238 WAT_238 4.1700e-01
733 H2 1.7703e+00 -9.8674e+00 -1.1789e+01 HW 238 WAT_238 4.1700e-01
734 O 2.8554e+00 -4.5473e+00 -5.5666e+00 OW 239 WAT_239 -8.3400e-01
735 H1 2.1288e+00 -5.1668e+00 -5.6340e+00 HW 239 WAT_239 4.1700e-01
736 H2 2.9163e+00 -4.1532e+00 -6.4368e+00 HW 239 WAT_239 4.1700e-01
737 O 1.0571e+01 -9.9154e+00 -1.3865e+01 OW 240 WAT_240 -8.3400e-01
738 H1 9.6438e+00 -9.9817e+00 -1.3636e+01 HW 240 WAT_240 4.1700e-01
739 H2 1.0723e+01 -8.9774e+00 -1.3979e+01 HW 240 WAT_240 4.1700e-01
740 O 6.0851e+00 -1.1018e+01 -5.2771e+00 OW 241 WAT_241 -8.3400e-01
741 H1 5.7808e+00 -1.0139e+01 -5.0521e+00 HW 241 WAT_241 4.1700e-01
742 H2 7.0397e+00 -1.0958e+01 -5.2414e+00 HW 241 WAT_241 4.1700e-01
743 O 2.1414e+00 -1.0178e+01 -4.1300e+00 OW 242 WAT_242 -8.3400e-01
744 H1 1.7829e+00 -9.5122e+00 -3.5426e+00 HW 242 WAT_242 4.1700e-01
745 H2 1.8469e+00 -1.1009e+01 -3.7587e+00 HW 242 WAT_242 4.1700e-01
746 O 1.0339e+01 -1.9515e+00 -1.0827e+01 OW 243 WAT_243 -8.3400e-01
747 H1 9.7204e+00 -1.4958e+00 -1.1397e+01 HW 243 WAT_243 4.1700e-01
748 H2 1.1194e+01 -1.7964e+00 -1.1228e+01 HW 243 WAT_243 4.1700e-01
749 O 9.2084e+00 -4.6441e-01 -3.7399e+00 OW 244 WAT_244 -8.3400e-01
750 H1 9.1342e+00 4.3910e-01 -3.4327e+00 HW 244 WAT_244 4.1700e-01
751 H2 8.3062e+00 -7.8323e-01 -3.7677e+00 HW 244 WAT_244 4.1700e-01
752 O 1.1960e+01 -1.0421e+01 -1.1108e+01 OW 245 WAT_245 -8.3400e-01
753 H1 1.1880e+01 -1.1336e+01 -1.1379e+01 HW 245 WAT_245 4.1700e-01
754 H2 1.1547e+01 -9.9245e+00 -1.1814e+01 HW 245 WAT_245 4.1700e-01
755 O 1.1726e+01 -1.1563e+01 -1.3668e+00 OW 246 WAT_246 -8.3400e-01
756 H1 1.2051e+01 -1.2397e+01 -1.7066e+00 HW 246 WAT_246 4.1700e-01
757 H2 1.2514e+01 -1.1040e+01 -1.2190e+00 HW 246 WAT_246 4.1700e-01
758 O 7.5448e+00 -1.2962e+01 -1.3478e+01 OW 247 WAT_247 -8.3400e-01
759 H1 6.8364e+00 -1.2493e+01 -1.3037e+01 HW 247 WAT_247 4.1700e-01
760 H2 7.8292e+00 -1.3620e+01 -1.2844e+01 HW 247 WAT_247 4.1700e-01
761 O 6.3617e+00 -3.1505e+00 -1.4840e+00 OW 248 WAT_248 -8.3400e-01
762 H1 6.3333e+00 -2.7462e+00 -2.3511e+00 HW 248 WAT_248 4.1700e-01
763 H2 6.1982e+00 -4.0795e+00 -1.6468e+00 HW 248 WAT_248 4.1700e-01
764 O 6.4599e+00 -2.3328e+00 -8.7816e+00 OW 249 WAT_249 -8.3400e-01
765 H1 6.9764e+00 -2.9440e+00 -9.3068e+00 HW 249 WAT_249 4.1700e-01
766 H2 7.1096e+00 -1.8299e+00 -8.2905e+00 HW 249 WAT_249 4.1700e-01
767 O 1.0754e+01 -7.7443e+00 -3.0009e+00 OW 250 WAT_250 -8.3400e-01
768 H1 1.0688e+01 -8.6648e+00 -3.2551e+00 HW 250 WAT_250 4.1700e-01
769 H2 1.0124e+01 -7.6468e+00 -2.2864e+00 HW 250 WAT_250 4.1700e-01
770 O 5.2807e+00 -5.5719e+00 -4.9402e+00 OW 251 WAT_251 -8.3400e-01
771 H1 5.8981e+00 -4.8968e+00 -5.2217e+00 HW 251 WAT_251 4.1700e-01
772 H2 4.4200e+00 -5.1631e+00 -5.0314e+00 HW 251 WAT_251 4.1700e-01
773 O 1.3177e+01 -9.7195e+00 -5.1543e+00 OW 252 WAT_252 -8.3400e-01
774 H1 1.2650e+01 -9.1952e+00 -5.7578e+00 HW 252 WAT_252 4.1700e-01
775 H2 1.3520e+01 -9.0868e+00 -4.5234e+00 HW 252 WAT_252 4.1700e-01
776 O 1.1557e+01 -1.0794e+01 -7.7473e+00 OW 253 WAT_253 -8.3400e-01
777 H1 1.0825e+01 -1.0286e+01 -7.3983e+00 HW 253 WAT_253 4.1700e-01
778 H2 1.1159e+01 -1.1611e+01 -8.0484e+00 HW 253 WAT_253 4.1700e-01
779 O 8.5014e+00 -8.0048e+00 -5.1144e+00 OW 254 WAT_254 -8.3400e-01
780 H1 8.9202e+00 -7.1616e+00 -5.2867e+00 HW 254 WAT_254 4.1700e-01
781 H2 7.5823e+00 -7.8676e+00 -5.3437e+00 HW 254 WAT_254 4.1700e-01
782 O 8.5130e+00 -5.7957e+00 -1.2998e+01 OW 255 WAT_255 -8.3400e-01
783 H1 9.2001e+00 -5.2488e+00 -1.2617e+01 HW 255 WAT_255 4.1700e-01
784 H2 7.7262e+00 -5.2517e+00 -1.2963e+01 HW 255 WAT_255 4.1700e-01
785 O 5.1348e+00 -1.2028e+01 -1.2472e+01 OW 256 WAT_256 -8.3400e-01
786 H1 4.9089e+00 -1.2244e+01 -1.1567e+01 HW 256 WAT_256 4.1700e-01
787 H2 4.3541e+00 -1.1595e+01 -1.2817e+01 HW 256 WAT_256 4.1700e-01
788 O 2.8770e+00 -1.0494e+01 -1.3582e+01 OW 257 WAT_257 -8.3400e-01
789 H1 2.7568e+00 -9.7682e+00 -1.4194e+01 HW 257 WAT_257 4.1700e-01
790 H2 2.5671e+00 -1.1264e+01 -1.4059e+01 HW 257 WAT_257 4.1700e-01
791 O 1.0838e+01 -1.0273e+01 -3.7306e+00 OW 258 WAT_258 -8.3400e-01
792 H1 1.0957e+01 -1.0869e+01 -2.9911e+00 HW 258 WAT_258 4.1700e-01
793 H2 1.1697e+01 -1.0236e+01 -4.1505e+00 HW 258 WAT_258 4.1700e-01
794 O 1.9701e+00 -9.3726e+00 -6.7992e+00 OW 259 WAT_259 -8.3400e-01
795 H1 2.3374e+00 -9.4599e+00 -5.9196e+00 HW 259 WAT_259 4.1700e-01
796 H2 1.4012e+00 -1.0136e+01 -6.8985e+00 HW 259 WAT_259 4.1700e-01
797 O 4.8894e+00 -1.2615e+01 -7.3030e+00 OW 260 WAT_260 -8.3400e-01
798 H1 5.4409e+00 -1.2505e+01 -8.0777e+00 HW 260 WAT_260 4.1700e-01
799 H2 5.4038e+00 -1.2241e+01 -6.5875e+00 HW 260 WAT_260 4.1700e-01
800 O 1.2821e+01 -2.0532e+00 -1.2395e+01 OW 261 WAT_261 -8.3400e-01
801 H1 1.3277e+01 -2.8342e+00 -1.2081e+01 HW 261 WAT_261 4.1700e-01
802 H2 1.3161e+01 -1.3425e+00 -1.1851e+01 HW 261 WAT_261 4.1700e-01
803 O 1.1206e+01 -7.0676e+00 -1.3433e+01 OW 262 WAT_262 -8.3400e-01
804 H1 1.0587e+01 -6.6027e+00 -1.3997e+01 HW 262 WAT_262 4.1700e-01
805 H2 1.1718e+01 -6.3749e+00 -1.3016e+01 HW 262 WAT_262 4.1700e-01
806 O 5.7366e+00 -5.9640e+00 -2.2682e+00 OW 263 WAT_263 -8.3400e-01
807 H1 4.8394e+00 -5.7400e+00 -2.0209e+00 HW 263 WAT_263 4.1700e-01
808 H2 5.7619e+00 -5.8405e+00 -3.2171e+00 HW 263 WAT_263 4.1700e-01
809 O 2.9015e+00 -1.1003e+01 -8.1553e-01 OW 264 WAT_264 -8.3400e-01
810 H1 2.9420e+00 -1.1302e+01 9.2992e-02 HW 264 WAT_264 4.1700e-01
811 H2 3.7560e+00 -1.0602e+01 -9.7478e-01 HW 264 WAT_264 4.1700e-01
812 O 4.0889e+00 -4.2974e+00 -8.1536e+00 OW 265 WAT_265 -8.3400e-01
813 H1 4.3917e+00 -5.1876e+00 -8.3325e+00 HW 265 WAT_265 4.1700e-01
814 H2 4.8333e+00 -3.7403e+00 -8.3813e+00 HW 265 WAT_265 4.1700e-01
815 O 4.8128e-01 -1.0771e+01 -8.6812e+00 OW 266 WAT_266 -8.3400e-01
816 H1 1.0529e+00 -1.1538e+01 -8.6808e+00 HW 266 WAT_266 4.1700e-01
817 H2 4.8143e-01 -1.0472e+01 -9.5905e+00 HW 266 WAT_266 4.1700e-01
818 O 6.6447e+00 -5.7022e+00 -8.9190e+00 OW 267 WAT_267 -8.3400e-01
819 H1 6.3476e+00 -6.3076e+00 -9.5982e+00 HW 267 WAT_267 4.1700e-01
820 H2 7.5947e+00 -5.6645e+00 -9.0301e+00 HW 267 WAT_267 4.1700e-01
821 O 5.1556e-01 -7.3229e+00 -7.7754e+00 OW 268 WAT_268 -8.3400e-01
822 H1 5.9360e-01 -7.1881e+00 -8.7198e+00 HW 268 WAT_268 4.1700e-01
823 H2 1.1297e+00 -8.0313e+00 -7.5826e+00 HW 268 WAT_268 4.1700e-01
824 O 1.7603e+00 -5.6229e+00 -1.1365e+01 OW 269 WAT_269 -8.3400e-01
825 H1 1.3531e+00 -5.4815e+00 -1.2219e+01 HW 269 WAT_269 4.1700e-01
826 H2 2.6516e+00 -5.9069e+00 -1.1568e+01 HW 269 WAT_269 4.1700e-01
827 O 1.2427e+01 -6.5555e+00 -1.0405e+01 OW 270 WAT_270 -8.3400e-01
828 H1 1.2779e+01 -7.1527e+00 -1.1065e+01 HW 270 WAT_270 4.1700e-01
829 H2 1.1543e+01 -6.8811e+00 -1.0234e+01 HW 270 WAT_270 4.1700e-01
830 O 5.2073e+00 -4.8061e+00 -1.2776e+01 OW 271 WAT_271 -8.3400e-01
831 H1 4.9068e+00 -4.9296e+00 -1.1876e+01 HW 271 WAT_271 4.1700e-01
832 H2 5.1010e+00 -5.6652e+00 -1.3185e+01 HW 271 WAT_271 4.1700e-01
833 O 8.2951e+00 -1.0059e+01 -7.5955e+00 OW 272 WAT_272 -8.3400e-01
834 H1 8.6621e+00 -1.0533e+01 -6.8494e+00 HW 272 WAT_272 4.1700e-01
835 H2 8.1056e+00 -9.1846e+00 -7.2547e+00 HW 272 WAT_272 4.1700e-01
836 O 6.0325e+00 -1.4083e+00 -1.3253e+01 OW 273 WAT_273 -8.3400e-01
837 H1 5.8567e+00 -2.3248e+00 -1.3466e+01 HW 273 WAT_273 4.1700e-01
838 H2 5.1781e+00 -1.0496e+00 -1.3013e+01 HW 273 WAT_273 4.1700e-01
839 O 1.0686e+01 -4.9223e+00 -3.2505e+00 OW 274 WAT_274 -8.3400e-01
840 H1 1.0700e+01 -5.8542e+00 -3.4686e+00 HW 274 WAT_274 4.1700e-01
841 H2 9.9781e+00 -4.8363e+00 -2.6115e+00 HW 274 WAT_274 4.1700e-01
842 O 1.0281e+00 -4.7506e+00 -1.3969e+01 OW 275 WAT_275 -8.3400e-01
843 H1 1.0209e-01 -4.5085e+00 -1.3978e+01 HW 275 WAT_275 4.1700e-01
844 H2 1.4938e+00 -3.9232e+00 -1.4090e+01 HW 275 WAT_275 4.1700e-01
845 O 6.1108e-01 -3.1370e+00 -1.0437e+01 OW 276 WAT_276 -8.3400e-01
846 H1 9.4139e-01 -4.0048e+00 -1.0669e+01 HW 276 WAT_276 4.1700e-01
847 H2 1.0402e+00 -2.9311e+00 -9.6061e+00 HW 276 WAT_276 4.1700e-01
848 O 4.5637e+00 -9.0927e+00 -3.6925e+00 OW 277 WAT_277 -8.3400e-01
849 H1 4.4245e+00 -8.2204e+00 -3.3238e+00 HW 277 WAT_277 4.1700e-01
850 H2 3.6818e+00 -9.4354e+00 -3.8377e+00 HW 277 WAT_277 4.1700e-01
851 O 2.3424e+00 -1.2866e+01 -8.2860e+00 OW 278 WAT_278 -8.3400e-01
852 H1 3.0234e+00 -1.2602e+01 -7.6673e+00 HW 278 WAT_278 4.1700e-01
853 H2 2.0272e+00 -1.3706e+01 -7.9522e+00 HW 278 WAT_278 4.1700e-01
854 O 7.0860e+00 -3.3034e+00 -6.0362e+00 OW 279 WAT_279 -8.3400e-01
855 H1 6.8451e+00 -3.0359e+00 -6.9231e+00 HW 279 WAT_279 4.1700e-01
856 H2 8.0262e+00 -3.1328e+00 -5.9811e+00 HW 279 WAT_279 4.1700e-01
857 O 9.2667e+00 -5.2033e-01 -5.8793e-01 OW 280 WAT_280 -8.3400e-01
858 H1 1.0193e+01 -7.5590e-01 -5.4433e-01 HW 280 WAT_280 4.1700e-01
859 H2 9.2517e+00 3.0687e-01 -1.0693e+00 HW 280 WAT_280 4.1700e-01
860 O 6.5349e+00 -1.1819e+01 -9.1988e+00 OW 281 WAT_281 -8.3400e-01
861 H1 7.0427e+00 -1.1321e+01 -8.5583e+00 HW 281 WAT_281 4.1700e-01
862 H2 7.0662e+00 -1.2596e+01 -9.3748e+00 HW 281 WAT_281 4.1700e-01
863 O 1.0119e+01 -3.2805e+00 -6.1564e+00 OW 282 WAT_282 -8.3400e-01
864 H1 1.0763e+01 -3.0746e+00 -5.4791e+00 HW 282 WAT_282 4.1700e-01
865 H2 1.0482e+01 -4.0417e+00 -6.6094e+00 HW 282 WAT_282 4.1700e-01
866 O 1.1578e+01 -1.4737e+00 -4.4581e+00 OW 283 WAT_283 -8.3400e-01
867 H1 1.2093e+01 -1.5629e+00 -3.6558e+00 HW 283 WAT_283 4.1700e-01
868 H2 1.0735e+01 -1.1278e+00 -4.1653e+00 HW 283 WAT_283 4.1700e-01
869 O 1.0887e+01 -4.1751e+00 -1.2386e+01 OW 284 WAT_284 -8.3400e-01
870 H1 1.1326e+01 -3.4327e+00 -1.2800e+01 HW 284 WAT_284 4.1700e-01
871 H2 1.0825e+01 -3.9324e+00 -1.1462e+01 HW 284 WAT_284 4.1700e-01
872 O 5.7151e-01 -6.2815e+00 -5.2360e+00 OW 285 WAT_285 -8.3400e-01
873 H1 7.3462e-01 -6.7510e+00 -6.0540e+00 HW 285 WAT_285 4.1700e-01
874 H2 1.0368e+00 -6.7892e+00 -4.5711e+00 HW 285 WAT_285 4.1700e-01
875 O 4.1436e+00 -8.1795e-01 -9.8427e+00 OW 286 WAT_286 -8.3400e-01
876 H1 4.8798e+00 -1.3664e+00 -9.5718e+00 HW 286 WAT_286 4.1700e-01
877 H2 4.5277e+00 4.7648e-02 -9.9821e+00 HW 286 WAT_286 4.1700e-01
878 O 1.0092e+01 -8.6433e+00 -9.2269e+00 OW 287 WAT_287 -8.3400e-01
879 H1 9.3164e+00 -9.1233e+00 -8.9371e+00 HW 287 WAT_287 4.1700e-01
880 H2 1.0743e+01 -9.3228e+00 -9.4013e+00 HW 287 WAT_287 4.1700e-01
881 O 8.9948e+00 -4.4286e+00 -1.0663e+00 OW 288 WAT_288 -8.3400e-01
882 H1 8.6745e+00 -5.1477e+00 -5.2172e-01 HW 288 WAT_288 4.1700e-01
883 H2 8.3206e+00 -3.7531e+00 -9.9269e-01 HW 288 WAT_288 4.1700e-01
884 O 7.9230e+00 -7.7389e+00 -2.1770e+00 OW 289 WAT_289 -8.3400e-01
885 H1 7.1575e+00 -7.1704e+00 -2.2615e+00 HW 289 WAT_289 4.1700e-01
886 H2 8.1046e+00 -8.0313e+00 -3.0702e+00 HW 289 WAT_289 4.1700e-01
887 O 9.1704e+00 -1.1542e+01 -5.4788e+00 OW 290 WAT_290 -8.3400e-01
888 H1 9.6689e+00 -1.1067e+01 -4.8136e+00 HW 290 WAT_290 4.1700e-01
889 H2 9.3127e+00 -1.2466e+01 -5.2718e+00 HW 290 WAT_290 4.1700e-01
890 O 9.1994e+00 -1.4419e+00 -7.9547e+00 OW 291 WAT_291 -8.3400e-01
891 H1 9.4872e+00 -1.6965e+00 -8.8314e+00 HW 291 WAT_291 4.1700e-01
892 H2 9.7118e+00 -1.9942e+00 -7.3642e+00 HW 291 WAT_291 4.1700e-01
893 O 1.1384e+00 -1.2298e+00 -1.2357e+01 OW 292 WAT_292 -8.3400e-01
894 H1 9.7058e-01 -1.8628e+00 -1.1659e+01 HW 292 WAT_292 4.1700e-01
895 H2 2.7183e-01 -1.0239e+00 -1.2707e+01 HW 292 WAT_292 4.1700e-01
896 O 7.8157e+00 -8.7911e+00 -1.3386e+01 OW 293 WAT_293 -8.3400e-01
897 H1 8.2720e+00 -7.9806e+00 -1.3160e+01 HW 293 WAT_293 4.1700e-01
898 H2 7.4645e+00 -9.1088e+00 -1.2554e+01 HW 293 WAT_293 4.1700e-01
899 O 6.1766e+00 -9.3890e+00 -1.1083e+01 OW 294 WAT_294 -8.3400e-01
900 H1 5.7723e+00 -1.0101e+01 -1.1578e+01 HW 294 WAT_294 4.1700e-01
901 H2 6.2629e+00 -9.7336e+00 -1.0194e+01 HW 294 WAT_294 4.1700e-01
902 O 2.1454e+00 -6.9064e+00 -3.0764e+00 OW 295 WAT_295 -8.3400e-01
903 H1 1.7609e+00 -7.5470e+00 -2.4781e+00 HW 295 WAT_295 4.1700e-01
904 H2 2.4566e+00 -6.2028e+00 -2.5069e+00 HW 295 WAT_295 4.1700e-01
905 O 4.6570e+00 -7.1437e+00 -1.1043e+01 OW 296 WAT_296 -8.3400e-01
906 H1 5.1748e+00 -7.9469e+00 -1.1097e+01 HW 296 WAT_296 4.1700e-01
907 H2 4.2054e+00 -7.2058e+00 -1.0201e+01 HW 296 WAT_296 4.1700e-01
908 O 9.5331e+00 -5.9676e+00 -9.2199e+00 OW 297 WAT_297 -8.3400e-01
909 H1 9.4639e+00 -6.9086e+00 -9.3810e+00 HW 297 WAT_297 4.1700e-01
910 H2 1.0295e+01 -5.8775e+00 -8.6477e+00 HW 297 WAT_297 4.1700e-01
911 O 1.5217e+00 -1.2462e+01 -2.8933e+00 OW 298 WAT_298 -8.3400e-01
912 H1 6.2735e-01 -1.2495e+01 -2.5540e+00 HW 298 WAT_298 4.1700e-01
913 H2 2.0615e+00 -1.2263e+01 -2.1282e+00 HW 298 WAT_298 4.1700e-01
914 O 1.1392e+01 -5.2773e+00 -7.4387e+00 OW 299 WAT_299 -8.3400e-01
915 H1 1.2034e+01 -5.9780e+00 -7.3255e+00 HW 299 WAT_299 4.1700e-01
916 H2 1.1917e+01 -4.4974e+00 -7.6190e+00 HW 299 WAT_299 4.1700e-01
917 O 7.5747e+00 -1.1129e+01 -1.8058e+00 OW 300 WAT_300 -8.3400e-01
918 H1 7.4791e+00 -1.2070e+01 -1.9557e+00 HW 300 WAT_300 4.1700e-01
919 H2 8.4179e+00 -1.0908e+01 -2.2010e+00 HW 300 WAT_300 4.1700e-01
920 O 8.6640e+00 -1.0011e+00 -1.2766e+01 OW 301 WAT_301 -8.3400e-01
921 H1 8.9181e+00 -1.0390e+00 -1.3688e+01 HW 301 WAT_301 4.1700e-01
922 H2 7.7152e+00 -1.1278e+00 -1.2773e+01 HW 301 WAT_301 4.1700e-01
923 O 6.0688e+00 -7.5400e+00 -6.7551e+00 OW 302 WAT_302 -8.3400e-01
924 H1 5.7357e+00 -6.9131e+00 -6.1130e+00 HW 302 WAT_302 4.1700e-01
925 H2 6.2455e+00 -7.0138e+00 -7.5349e+00 HW 302 WAT_302 4.1700e-01
926 O 1.1986e+01 -5.5254e+00 -7.0660e-01 OW 303 WAT_303 -8.3400e-01
927 H1 1.1380e+01 -5.5022e+00 -1.4470e+00 HW 303 WAT_303 4.1700e-01
928 H2 1.1681e+01 -6.2571e+00 -1.6988e-01 HW 303 WAT_303 4.1700e-01
929 O 5.3427e+00 -9.7192e+00 -1.2460e+00 OW 304 WAT_304 -8.3400e-01
930 H1 5.0428e+00 -9.5734e+00 -2.1432e+00 HW 304 WAT_304 4.1700e-01
931 H2 6.1139e+00 -1.0279e+01 -1.3387e+00 HW 304 WAT_304 4.1700e-01
932 O 4.1088e+00 -8.3314e+00 -8.3494e+00 OW 305 WAT_305 -8.3400e-01
933 H1 3.2773e+00 -8.5865e+00 -7.9497e+00 HW 305 WAT_305 4.1700e-01
934 H2 4.7169e+00 -8.2603e+00 -7.6136e+00 HW 305 WAT_305 4.1700e-01
935 O 8.6917e-01 -9.1460e+00 -1.7105e+00 OW 306 WAT_306 -8.3400e-01
936 H1 1.3731e+00 -9.7253e+00 -1.1389e+00 HW 306 WAT_306 4.1700e-01
937 H2 1.2992e-01 -8.8620e+00 -1.1729e+00 HW 306 WAT_306 4.1700e-01
938 O 4.8421e+00 -1.2424e+01 -2.8481e+00 OW 307 WAT_307 -8.3400e-01
939 H1 4.3117e+00 -1.2915e+01 -3.4757e+00 HW 307 WAT_307 4.1700e-01
940 H2 5.5109e+00 -1.1995e+01 -3.3823e+00 HW 307 WAT_307 4.1700e-01
941 O 1.3166e+01 -4.4778e+00 -4.2351e+00 OW 308 WAT_308 -8.3400e-01
942 H1 1.3502e+01 -3.8911e+00 -3.5573e+00 HW 308 WAT_308 4.1700e-01
943 H2 1.2246e+01 -4.6085e+00 -4.0053e+00 HW 308 WAT_308 4.1700e-01
944 O 6.3521e+00 -1.6995e+00 -3.9986e+00 OW 309 WAT_309 -8.3400e-01
945 H1 5.8142e+00 -9.7493e-01 -4.3177e+00 HW 309 WAT_309 4.1700e-01
946 H2 6.6055e+00 -2.1765e+00 -4.7889e+00 HW 309 WAT_309 4.1700e-01
947 O -1.3026e+01 4.1211e+00 2.6714e+00 OW 310 WAT_310 -8.3400e-01
948 H1 -1.2177e+01 4.5581e+00 2.6054e+00 HW 310 WAT_310 4.1700e-01
949 H2 -1.3393e+01 4.4331e+00 3.4986e+00 HW 310 WAT_310 4.1700e-01
950 O -4.1051e+00 8.6924e+00 7.5845e+00 OW 311 WAT_311 -8.3400e-01
951 H1 -5.0461e+00 8.7074e+00 7.7593e+00 HW 311 WAT_311 4.1700e-01
952 H2 -3.7907e+00 7.9060e+00 8.0305e+00 HW 311 WAT_311 4.1700e-01
953 O -1.2095e+01 1.0371e+01 3.1192e+00 OW 312 WAT_312 -8.3400e-01
954 H1 -1.1673e+01 1.0205e+01 3.9623e+00 HW 312 WAT_312 4.1700e-01
955 H2 -1.1970e+01 9.5609e+00 2.6247e+00 HW 312 WAT_312 4.1700e-01
956 O -3.8051e+00 1.7737e+00 9.4442e+00 OW 313 WAT_313 -8.3400e-01
957 H1 -3.3643e+00 1.7183e+00 8.5963e+00 HW 313 WAT_313 4.1700e-01
958 H2 -4.0743e+00 2.6895e+00 9.5152e+00 HW 313 WAT_313 4.1700e-01
959 O -9.5823e+00 9.3946e+00 3.6688e-01 OW 314 WAT_314 -8.3400e-01
960 H1 -9.0617e+00 8.6795e+00 9.9373e-04 HW 314 WAT_314 4.1700e-01
961 H2 -8.9354e+00 1.0033e+01 6.6693e-01 HW 314 WAT_314 4.1700e-01
962 O -1.0472e+01 3.4901e+00 6.9109e+00 OW 315 WAT_315 -8.3400e-01
963 H1 -1.1284e+01 3.1158e+00 6.5704e+00 HW 315 WAT_315 4.1700e-01
964 H2 -9.9676e+00 2.7346e+00 7.2130e+00 HW 315 WAT_315 4.1700e-01
965 O -1.0718e+01 5.6567e+00 2.4230e+00 OW 316 WAT_316 -8.3400e-01
966 H1 -1.0597e+01 5.6153e+00 3.3715e+00 HW 316 WAT_316 4.1700e-01
967 H2 -1.1103e+01 6.5191e+00 2.2676e+00 HW 316 WAT_316 4.1700e-01
968 O -3.3529e+00 1.2731e+01 1.3461e+01 OW 317 WAT_317 -8.3400e-01
969 H1 -4.1669e+00 1.3161e+01 1.3724e+01 HW 317 WAT_317 4.1700e-01
970 H2 -2.9454e+00 1.3343e+01 1.2848e+01 HW 317 WAT_317 4.1700e-01
971 O -8.2035e+00 8.8589e+00 4.9094e+00 OW 318 WAT_318 -8.3400e-01
972 H1 -9.1305e+00 8.7927e+00 5.1383e+00 HW 318 WAT_318 4.1700e-01
973 H2 -8.0510e+00 9.7969e+00 4.7950e+00 HW 318 WAT_318 4.1700e-01
974 O -1.2689e+01 7.7565e+00 1.3497e+01 OW 319 WAT_319 -8.3400e-01
975 H1 -1.2994e+01 8.6357e+00 1.3722e+01 HW 319 WAT_319 4.1700e-01
976 H2 -1.1735e+01 7.8165e+00 1.3533e+01 HW 319 WAT_319 4.1700e-01
977 O -7.8033e+00 5.3895e+00 6.9320e+00 OW 320 WAT_320 -8.3400e-01
978 H1 -7.4103e+00 5.7067e+00 6.1188e+00 HW 320 WAT_320 4.1700e-01
979 H2 -7.4416e+00 4.5106e+00 7.0464e+00 HW 320 WAT_320 4.1700e-01
980 O -6.5642e+00 4.5783e+00 1.3072e+01 OW 321 WAT_321 -8.3400e-01
981 H1 -6.1961e+00 3.7578e+00 1.3400e+01 HW 321 WAT_321 4.1700e-01
982 H2 -7.4244e+00 4.6385e+00 1.3487e+01 HW 321 WAT_321 4.1700e-01
983 O -1.2000e+00 4.8422e+00 7.1280e+00 OW 322 WAT_322 -8.3400e-01
984 H1 -1.3100e+00 4.6878e+00 8.0662e+00 HW 322 WAT_322 4.1700e-01
985 H2 -4.3922e-01 4.3143e+00 6.8855e+00 HW 322 WAT_322 4.1700e-01
986 O -1.2903e+00 1.0786e+01 3.6132e-01 OW 323 WAT_323 -8.3400e-01
987 H1 -1.0154e+00 1.1694e+01 2.3324e-01 HW 323 WAT_323 4.1700e-01
988 H2 -1.4792e+00 1.0722e+01 1.2975e+00 HW 323 WAT_323 4.1700e-01
989 O -6.8140e+00 8.3531e+00 7.6665e+00 OW 324 WAT_324 -8.3400e-01
990 H1 -6.8946e+00 7.4386e+00 7.3956e+00 HW 324 WAT_324 4.1700e-01
991 H2 -7.2275e+00 8.8498e+00 6.9604e+00 HW 324 WAT_324 4.1700e-01
992 O -6.1047e+00 1.5445e-01 1.2460e+01 OW 325 WAT_325 -8.3400e-01
993 H1 -6.9787e+00 4.8796e-01 1.2257e+01 HW 325 WAT_325 4.1700e-01
994 H2 -6.2136e+00 -3.1823e-01 1.3285e+01 HW 325 WAT_325 4.1700e-01
995 O -1.1230e+01 5.8126e+00 5.2963e+00 OW 326 WAT_326 -8.3400e-01
996 H1 -1.1938e+01 6.2812e+00 5.7376e+00 HW 326 WAT_326 4.1700e-01
997 H2 -1.0945e+01 5.1548e+00 5.9308e+00 HW 326 WAT_326 4.1700e-01
998 O -5.5978e+00 9.0548e+00 1.3620e+01 OW 327 WAT_327 -8.3400e-01
999 H1 -6.1243e+00 9.5791e+00 1.3017e+01 HW 327 WAT_327 4.1700e-01
1000 H2 -5.2546e+00 9.6876e+00 1.4251e+01 HW 327 WAT_327 4.1700e-01
1001 O -7.2178e+00 7.9800e+00 1.1027e+01 OW 328 WAT_328 -8.3400e-01
1002 H1 -7.9496e+00 8.4887e+00 1.1376e+01 HW 328 WAT_328 4.1700e-01
1003 H2 -7.6153e+00 7.1630e+00 1.0726e+01 HW 328 WAT_328 4.1700e-01
1004 O -1.0273e+01 1.0770e+01 1.3660e+01 OW 329 WAT_329 -8.3400e-01
1005 H1 -9.8541e+00 1.1613e+01 1.3488e+01 HW 329 WAT_329 4.1700e-01
1006 H2 -1.1192e+01 1.0907e+01 1.3431e+01 HW 329 WAT_329 4.1700e-01
1007 O -1.0261e+01 1.2979e+01 5.7761e+00 OW 330 WAT_330 -8.3400e-01
1008 H1 -9.5742e+00 1.3526e+01 6.1569e+00 HW 330 WAT_330 4.1700e-01
1009 H2 -1.1048e+01 1.3523e+01 5.8111e+00 HW 330 WAT_330 4.1700e-01
1010 O -7.9413e+00 2.3529e+00 4.0295e+00 OW 331 WAT_331 -8.3400e-01
1011 H1 -8.7549e+00 1.8542e+00 3.9540e+00 HW 331 WAT_331 4.1700e-01
1012 H2 -8.1351e+00 3.1927e+00 3.6131e+00 HW 331 WAT_331 4.1700e-01
1013 O -8.3572e+00 1.0714e+00 1.1399e+01 OW 332 WAT_332 -8.3400e-01
1014 H1 -9.1400e+00 1.5460e+00 1.1679e+01 HW 332 WAT_332 4.1700e-01
1015 H2 -8.6509e+00 1.6692e-01 1.1291e+01 HW 332 WAT_332 4.1700e-01
1016 O -1.1706e+01 7.9668e+00 1.8213e+00 OW 333 WAT_333 -8.3400e-01
1017 H1 -1.2274e+01 7.5186e+00 1.1949e+00 HW 333 WAT_333 4.1700e-01
1018 H2 -1.0997e+01 8.3260e+00 1.2878e+00 HW 333 WAT_333 4.1700e-01
1019 O -1.1182e+01 2.4877e+00 1.0384e+00 OW 334 WAT_334 -8.3400e-01
1020 H1 -1.1530e+01 1.8101e+00 4.5864e-01 HW 334 WAT_334 4.1700e-01
1021 H2 -1.0981e+01 2.0267e+00 1.8527e+00 HW 334 WAT_334 4.1700e-01
1022 O -6.7552e+00 3.4334e+00 1.0439e+01 OW 335 WAT_335 -8.3400e-01
1023 H1 -6.7379e+00 3.8843e+00 1.1284e+01 HW 335 WAT_335 4.1700e-01
1024 H2 -7.0036e+00 2.5340e+00 1.0653e+01 HW 335 WAT_335 4.1700e-01
1025 O -2.3973e+00 3.4491e+00 1.4138e+01 OW 336 WAT_336 -8.3400e-01
1026 H1 -2.8999e+00 4.1896e+00 1.4478e+01 HW 336 WAT_336 4.1700e-01
1027 H2 -1.5816e+00 3.8375e+00 1.3822e+01 HW 336 WAT_336 4.1700e-01
1028 O -7.5687e+00 1.1707e+01 5.3409e+00 OW 337 WAT_337 -8.3400e-01
1029 H1 -8.1870e+00 1.2172e+01 4.7772e+00 HW 337 WAT_337 4.1700e-01
1030 H2 -7.0564e+00 1.2399e+01 5.7579e+00 HW 337 WAT_337 4.1700e-01
1031 O -1.2447e+01 1.6401e+00 5.5154e+00 OW 338 WAT_338 -8.3400e-01
1032 H1 -1.3077e+01 9.3883e-01 5.6824e+00 HW 338 WAT_338 4.1700e-01
1033 H2 -1.2986e+01 2.4005e+00 5.2987e+00 HW 338 WAT_338 4.1700e-01
1034 O -1.0780e+01 4.6554e+00 9.4323e+00 OW 339 WAT_339 -8.3400e-01
1035 H1 -1.0776e+01 4.2144e+00 8.5827e+00 HW 339 WAT_339 4.1700e-01
1036 H2 -9.8849e+00 4.9772e+00 9.5395e+00 HW 339 WAT_339 4.1700e-01
1037 O -2.6287e+00 6.2061e+00 4.5942e+00 OW 340 WAT_340 -8.3400e-01
1038 H1 -2.1328e+00 5.9732e+00 5.3791e+00 HW 340 WAT_340 4.1700e-01
1039 H2 -2.8271e+00 5.3673e+00 4.1780e+00 HW 340 WAT_340 4.1700e-01
1040 O -5.6415e+00 1.1414e+01 1.1792e+01 OW 341 WAT_341 -8.3400e-01
1041 H1 -5.2246e+00 1.1200e+01 1.0958e+01 HW 341 WAT_341 4.1700e-01
1042 H2 -4.9175e+00 1.1671e+01 1.2363e+01 HW 341 WAT_341 4.1700e-01
1043 O -1.3422e+00 1.0493e+01 3.2041e+00 OW 342 WAT_342 -8.3400e-01
1044 H1 -5.8034e-01 1.1062e+01 3.3100e+00 HW 342 WAT_342 4.1700e-01
1045 H2 -1.3268e+00 9.9254e+00 3.9749e+00 HW 342 WAT_342 4.1700e-01
1046 O -3.7455e+00 1.3232e+01 5.5532e+00 OW 343 WAT_343 -8.3400e-01
1047 H1 -3.8558e+00 1.2290e+01 5.6781e+00 HW 343 WAT_343 4.1700e-01
1048 H2 -3.7487e+00 1.3594e+01 6.4395e+00 HW 343 WAT_343 4.1700e-01
1049 O -1.2130e+01 1.3072e+01 9.8553e+00 OW 344 WAT_344 -8.3400e-01
1050 H1 -1.2427e+01 1.2467e+01 9.1761e+00 HW 344 WAT_344 4.1700e-01
1051 H2 -1.1180e+01 1.3110e+01 9.7443e+00 HW 344 WAT_344 4.1700e-01
1052 O -6.3477e+00 1.2219e+01 8.3691e+00 OW 345 WAT_345 -8.3400e-01
1053 H1 -5.9953e+00 1.1622e+01 7.7092e+00 HW 345 WAT_345 4.1700e-01
1054 H2 -7.2314e+00 1.1893e+01 8.5399e+00 HW 345 WAT_345 4.1700e-01
1055 O -3.3624e-01 1.1348e+01 8.0483e+00 OW 346 WAT_346 -8.3400e-01
1056 H1 3.4645e-02 1.0564e+01 7.6419e+00 HW 346 WAT_346 4.1700e-01
1057 H2 3.0396e-01 1.2037e+01 7.8700e+00 HW 346 WAT_346 4.1700e-01
1058 O -1.1393e+01 2.1681e+00 1.0433e+01 OW 347 WAT_347 -8.3400e-01
1059 H1 -1.1096e+01 3.0744e+00 1.0353e+01 HW 347 WAT_347 4.1700e-01
1060 H2 -1.0845e+01 1.6800e+00 9.8194e+00 HW 347 WAT_347 4.1700e-01
1061 O -1.0479e+01 8.7156e+00 1.1179e+01 OW 348 WAT_348 -8.3400e-01
1062 H1 -1.0112e+01 8.2415e+00 1.1925e+01 HW 348 WAT_348 4.1700e-01
1063 H2 -1.0669e+01 9.5898e+00 1.1520e+01 HW 348 WAT_348 4.1700e-01
1064 O -9.2304e+00 1.2897e+01 3.0045e+00 OW 349 WAT_349 -8.3400e-01
1065 H1 -8.8888e+00 1.3641e+01 2.5089e+00 HW 349 WAT_349 4.1700e-01
1066 H2 -1.0059e+01 1.3210e+01 3.3670e+00 HW 349 WAT_349 4.1700e-01
1067 O -7.1980e+00 2.5377e+00 6.7359e+00 OW 350 WAT_350 -8.3400e-01
1068 H1 -7.3213e+00 2.5563e+00 5.7868e+00 HW 350 WAT_350 4.1700e-01
1069 H2 -6.2496e+00 2.5856e+00 6.8557e+00 HW 350 WAT_350 4.1700e-01
1070 O -1.9397e+00 7.0328e+00 1.2177e+01 OW 351 WAT_351 -8.3400e-01
1071 H1 -2.8894e+00 6.9991e+00 1.2291e+01 HW 351 WAT_351 4.1700e-01
1072 H2 -1.7584e+00 7.9428e+00 1.1942e+01 HW 351 WAT_351 4.1700e-01
1073 O -1.9412e+00 1.4053e+00 7.4550e+00 OW 352 WAT_352 -8.3400e-01
1074 H1 -2.0024e+00 4.6139e-01 7.3081e+00 HW 352 WAT_352 4.1700e-01
1075 H2 -1.1620e+00 1.5133e+00 8.0004e+00 HW 352 WAT_352 4.1700e-01
1076 O -3.5366e+00 1.3782e+01 1.0596e+00 OW 353 WAT_353 -8.3400e-01
1077 H1 -3.7628e+00 1.3065e+01 1.6520e+00 HW 353 WAT_353 4.1700e-01
1078 H2 -3.9270e+00 1.3533e+01 2.2173e-01 HW 353 WAT_353 4.1700e-01
1079 O -4.1922e+00 5.0488e+00 9.4869e+00 OW 354 WAT_354 -8.3400e-01
1080 H1 -4.8966e+00 5.3373e+00 1.0067e+01 HW 354 WAT_354 4.1700e-01
1081 H2 -3.8310e+00 5.8589e+00 9.1269e+00 HW 354 WAT_354 4.1700e-01
1082 O -1.2239e+01 6.9550e+00 9.5756e+00 OW 355 WAT_355 -8.3400e-01
1083 H1 -1.1732e+01 7.4531e+00 1.0216e+01 HW 355 WAT_355 4.1700e-01
1084 H2 -1.1708e+01 6.1785e+00 9.3995e+00 HW 355 WAT_355 4.1700e-01
1085 O -3.4023e+00 1.0959e+01 9.8866e+00 OW 356 WAT_356 -8.3400e-01
1086 H1 -2.6824e+00 1.1455e+01 9.4962e+00 HW 356 WAT_356 4.1700e-01
1087 H2 -3.6041e+00 1.0281e+01 9.2420e+00 HW 356 WAT_356 4.1700e-01
1088 O -4.1737e+00 1.0421e+01 5.4130e+00 OW 357 WAT_357 -8.3400e-01
1089 H1 -4.7925e+00 1.0083e+01 4.7656e+00 HW 357 WAT_357 4.1700e-01
1090 H2 -4.1913e+00 9.7769e+00 6.1209e+00 HW 357 WAT_357 4.1700e-01
1091 O -3.9550e+00 1.1699e+01 2.7210e+00 OW 358 WAT_358 -8.3400e-01
1092 H1 -4.2428e+00 1.2160e+01 3.5088e+00 HW 358 WAT_358 4.1700e-01
1093 H2 -3.1597e+00 1.1239e+01 2.9894e+00 HW 358 WAT_358 4.1700e-01
1094 O -8.2165e+00 5.1306e+00 1.9061e+00 OW 359 WAT_359 -8.3400e-01
1095 H1 -9.1562e+00 5.2920e+00 1.9914e+00 HW 359 WAT_359 4.1700e-01
1096 H2 -7.8982e+00 5.8492e+00 1.3597e+00 HW 359 WAT_359 4.1700e-01
1097 O -1.0679e+01 1.8741e+00 1.3039e+01 OW 360 WAT_360 -8.3400e-01
1098 H1 -1.1127e+01 1.8965e+00 1.2193e+01 HW 360 WAT_360 4.1700e-01
1099 H2 -1.1312e+01 1.4760e+00 1.3636e+01 HW 360 WAT_360 4.1700e-01
1100 O -1.1235e+00 4.4943e+00 9.8778e+00 OW 361 WAT_361 -8.3400e-01
1101 H1 -2.0710e+00 4.5282e+00 1.0009e+01 HW 361 WAT_361 4.1700e-01
1102 H2 -7.9848e-01 5.3082e+00 1.0263e+01 HW 361 WAT_361 4.1700e-01
1103 O -1.3837e-01 5.1255e+00 1.3279e+01 OW 362 WAT_362 -8.3400e-01
1104 H1 -8.4315e-01 5.5137e+00 1.2760e+01 HW 362 WAT_362 4.1700e-01
1105 H2 1.2742e-01 5.8205e+00 1.3881e+01 HW 362 WAT_362 4.1700e-01
1106 O -1.0315e+01 1.2445e+00 3.4550e+00 OW 363 WAT_363 -8.3400e-01
1107 H1 -1.0940e+01 1.2405e+00 4.1804e+00 HW 363 WAT_363 4.1700e-01
1108 H2 -1.0402e+01 3.7757e-01 3.0586e+00 HW 363 WAT_363 4.1700e-01
1109 O -4.8928e+00 3.8106e+00 1.6567e+00 OW 364 WAT_364 -8.3400e-01
1110 H1 -4.4743e+00 3.6237e+00 8.1634e-01 HW 364 WAT_364 4.1700e-01
1111 H2 -5.1992e+00 2.9585e+00 1.9670e+00 HW 364 WAT_364 4.1700e-01
1112 O -8.6822e+00 1.0131e+01 9.5474e+00 OW 365 WAT_365 -8.3400e-01
1113 H1 -9.4579e+00 9.6510e+00 9.8373e+00 HW 365 WAT_365 4.1700e-01
1114 H2 -8.0309e+00 9.4516e+00 9.3730e+00 HW 365 WAT_365 4.1700e-01
1115 O -5.9973e+00 9.6596e+00 2.4202e+00 OW 366 WAT_366 -8.3400e-01
1116 H1 -5.5579e+00 8.8219e+00 2.2740e+00 HW 366 WAT_366 4.1700e-01
1117 H2 -5.2844e+00 1.0293e+01 2.5066e+00 HW 366 WAT_366 4.1700e-01
1118 O -5.9693e+00 1.5435e-01 8.1492e+00 OW 367 WAT_367 -8.3400e-01
1119 H1 -5.3664e+00 7.2637e-01 8.6240e+00 HW 367 WAT_367 4.1700e-01
1120 H2 -6.7100e+00 7.1830e-01 7.9266e+00 HW 367 WAT_367 4.1700e-01
1121 O -1.3199e+01 6.4442e+00 6.4984e-02 OW 368 WAT_368 -8.3400e-01
1122 H1 -1.3400e+01 5.5809e+00 4.2632e-01 HW 368 WAT_368 4.1700e-01
1123 H2 -1.3370e+01 6.3575e+00 -8.7286e-01 HW 368 WAT_368 4.1700e-01
1124 O -6.4098e+00 6.7531e+00 4.9016e+00 OW 369 WAT_369 -8.3400e-01
1125 H1 -7.0089e+00 7.4767e+00 4.7180e+00 HW 369 WAT_369 4.1700e-01
1126 H2 -5.8618e+00 6.6908e+00 4.1193e+00 HW 369 WAT_369 4.1700e-01
1127 O -9.6040e+00 7.2323e+00 1.3296e+01 OW 370 WAT_370 -8.3400e-01
1128 H1 -9.1055e+00 7.7069e+00 1.3961e+01 HW 370 WAT_370 4.1700e-01
1129 H2 -9.4617e+00 6.3086e+00 1.3503e+01 HW 370 WAT_370 4.1700e-01
1130 O -1.0959e+01 9.9832e+00 5.3887e+00 OW 371 WAT_371 -8.3400e-01
1131 H1 -1.0502e+01 1.0794e+01 5.6147e+00 HW 371 WAT_371 4.1700e-01
1132 H2 -1.1310e+01 9.6655e+00 6.2205e+00 HW 371 WAT_371 4.1700e-01
1133 O -1.0592e+01 7.9404e-01 8.1734e+00 OW 372 WAT_372 -8.3400e-01
1134 H1 -1.0284e+01 2.3873e-01 7.4570e+00 HW 372 WAT_372 4.1700e-01
1135 H2 -1.1521e+01 9.2849e-01 7.9907e+00 HW 372 WAT_372 4.1700e-01
1136 O -1.2598e+01 9.3854e+00 7.6914e+00 OW 373 WAT_373 -8.3400e-01
1137 H1 -1.3002e+01 8.6731e+00 7.1960e+00 HW 373 WAT_373 4.1700e-01
1138 H2 -1.2511e+01 9.0407e+00 8.5802e+00 HW 373 WAT_373 4.1700e-01
1139 O -1.6953e+00 9.8125e+00 1.1884e+01 OW 374 WAT_374 -8.3400e-01
1140 H1 -2.5234e+00 9.8818e+00 1.1409e+01 HW 374 WAT_374 4.1700e-01
1141 H2 -1.1002e+00 1.0398e+01 1.1416e+01 HW 374 WAT_374 4.1700e-01
1142 O -7.7625e+00 1.1412e+01 1.2226e+00 OW 375 WAT_375 -8.3400e-01
1143 H1 -8.3115e+00 1.1859e+01 1.8669e+00 HW 375 WAT_375 4.1700e-01
1144 H2 -7.1406e+00 1.0907e+01 1.7464e+00 HW 375 WAT_375 4.1700e-01
1145 O -1.1003e+01 1.2350e+01 6.1844e-01 OW 376 WAT_376 -8.3400e-01
1146 H1 -1.1108e+01 1.1735e+01 1.3446e+00 HW 376 WAT_376 4.1700e-01
1147 H2 -1.1170e+01 1.1826e+01 -1.6526e-01 HW 376 WAT_376 4.1700e-01
1148 O -4.4283e+00 3.1088e+00 6.7141e+00 OW 377 WAT_377 -8.3400e-01
1149 H1 -3.6074e+00 2.6185e+00 6.7567e+00 HW 377 WAT_377 4.1700e-01
1150 H2 -4.3949e+00 3.6986e+00 7.4673e+00 HW 377 WAT_377 4.1700e-01
1151 O -9.2413e+00 1.2807e+01 9.5544e+00 OW 378 WAT_378 -8.3400e-01
1152 H1 -9.3104e+00 1.1866e+01 9.3933e+00 HW 378 WAT_378 4.1700e-01
1153 H2 -8.4793e+00 1.2897e+01 1.0127e+01 HW 378 WAT_378 4.1700e-01
1154 O -5.2265e+00 6.7249e+00 2.3257e+00 OW 379 WAT_379 -8.3400e-01
1155 H1 -4.3385e+00 7.0366e+00 2.1509e+00 HW 379 WAT_379 4.1700e-01
1156 H2 -5.2560e+00 5.8521e+00 1.9338e+00 HW 379 WAT_379 4.1700e-01
1157 O -2.1187e+00 6.9488e+00 8.6550e+00 OW 380 WAT_380 -8.3400e-01
1158 H1 -1.5949e+00 6.4550e+00 8.0240e+00 HW 380 WAT_380 4.1700e-01
1159 H2 -1.5327e+00 7.0838e+00 9.3997e+00 HW 380 WAT_380 4.1700e-01
1160 O -8.2107e+00 5.6138e+00 9.7813e+00 OW 381 WAT_381 -8.3400e-01
1161 H1 -7.8343e+00 4.7410e+00 9.6687e+00 HW 381 WAT_381 4.1700e-01
1162 H2 -8.3088e+00 5.9496e+00 8.8904e+00 HW 381 WAT_381 4.1700e-01
1163 O -1.3938e+00 8.7230e+00 5.3543e+00 OW 382 WAT_382 -8.3400e-01
1164 H1 -1.7694e+00 7.9558e+00 4.9224e+00 HW 382 WAT_382 4.1700e-01
1165 H2 -2.1235e+00 9.1053e+00 5.8418e+00 HW 382 WAT_382 4.1700e-01
1166 O -1.2706e+01 1.1234e+01 1.2019e+01 OW 383 WAT_383 -8.3400e-01
1167 H1 -1.3039e+01 1.1861e+01 1.2661e+01 HW 383 WAT_383 4.1700e-01
1168 H2 -1.2529e+01 1.1761e+01 1.1239e+01 HW 383 WAT_383 4.1700e-01
1169 O -4.7311e+00 6.5994e+00 1.2830e+01 OW 384 WAT_384 -8.3400e-01
1170 H1 -5.1440e+00 7.4248e+00 1.3084e+01 HW 384 WAT_384 4.1700e-01
1171 H2 -5.4635e+00 6.0139e+00 1.2637e+01 HW 384 WAT_384 4.1700e-01
1172 O -2.8534e+00 7.8161e-01 1.3586e+01 OW 385 WAT_385 -8.3400e-01
1173 H1 -2.2162e+00 1.3950e+00 1.3952e+01 HW 385 WAT_385 4.1700e-01
1174 H2 -2.7059e+00 8.1768e-01 1.2641e+01 HW 385 WAT_385 4.1700e-01
1175 O -5.1975e+00 2.3615e+00 1.3844e+01 OW 386 WAT_386 -8.3400e-01
1176 H1 -5.5262e+00 1.5467e+00 1.3464e+01 HW 386 WAT_386 4.1700e-01
1177 H2 -4.2493e+00 2.3185e+00 1.3721e+01 HW 386 WAT_386 4.1700e-01
1178 O -2.9551e+00 8.0361e+00 1.7937e+00 OW 387 WAT_387 -8.3400e-01
1179 H1 -3.0387e+00 8.4675e+00 9.4335e-01 HW 387 WAT_387 4.1700e-01
1180 H2 -2.2356e+00 8.4959e+00 2.2264e+00 HW 387 WAT_387 4.1700e-01
1181 O -4.1051e+00 8.6924e+00 -1.1190e+01 OW 388 WAT_388 -8.3400e-01
1182 H1 -5.0461e+00 8.7074e+00 -1.1015e+01 HW 388 WAT_388 4.1700e-01
1183 H2 -3.7907e+00 7.9060e+00 -1.0744e+01 HW 388 WAT_388 4.1700e-01
1184 O -1.8776e+00 1.0493e+01 -3.9036e+00 OW 389 WAT_389 -8.3400e-01
1185 H1 -2.6028e+00 1.1086e+01 -4.1007e+00 HW 389 WAT_389 4.1700e-01
1186 H2 -1.3501e+00 1.0485e+01 -4.7023e+00 HW 389 WAT_389 4.1700e-01
1187 O -3.8051e+00 1.7737e+00 -9.3302e+00 OW 390 WAT_390 -8.3400e-01
1188 H1 -3.3643e+00 1.7183e+00 -1.0178e+01 HW 390 WAT_390 4.1700e-01
1189 H2 -4.0743e+00 2.6895e+00 -9.2592e+00 HW 390 WAT_390 4.1700e-01
1190 O -1.0472e+01 3.4901e+00 -1.1863e+01 OW 391 WAT_391 -8.3400e-01
1191 H1 -1.1284e+01 3.1158e+00 -1.2204e+01 HW 391 WAT_391 4.1700e-01
1192 H2 -9.9676e+00 2.7346e+00 -1.1561e+01 HW 391 WAT_391 4.1700e-01
1193 O -3.3529e+00 1.2731e+01 -5.3131e+00 OW 392 WAT_392 -8.3400e-01
1194 H1 -4.1669e+00 1.3161e+01 -5.0505e+00 HW 392 WAT_392 4.1700e-01
1195 H2 -2.9454e+00 1.3343e+01 -5.9262e+00 HW 392 WAT_392 4.1700e-01
1196 O -8.2035e+00 8.8589e+00 -1.3865e+01 OW 393 WAT_393 -8.3400e-01
1197 H1 -9.1305e+00 8.7927e+00 -1.3636e+01 HW 393 WAT_393 4.1700e-01
1198 H2 -8.0510e+00 9.7969e+00 -1.3979e+01 HW 393 WAT_393 4.1700e-01
1199 O -1.2689e+01 7.7565e+00 -5.2771e+00 OW 394 WAT_394 -8.3400e-01
1200 H1 -1.2994e+01 8.6357e+00 -5.0521e+00 HW 394 WAT_394 4.1700e-01
1201 H2 -1.1735e+01 7.8165e+00 -5.2414e+00 HW 394 WAT_394 4.1700e-01
1202 O -7.8033e+00 5.3895e+00 -1.1842e+01 OW 395 WAT_395 -8.3400e-01
1203 H1 -7.4103e+00 5.7067e+00 -1.2656e+01 HW 395 WAT_395 4.1700e-01
1204 H2 -7.4416e+00 4.5106e+00 -1.1728e+01 HW 395 WAT_395 4.1700e-01
1205 O -6.5642e+00 4.5783e+00 -5.7026e+00 OW 396 WAT_396 -8.3400e-01
1206 H1 -6.1961e+00 3.7578e+00 -5.3747e+00 HW 396 WAT_396 4.1700e-01
1207 H2 -7.4244e+00 4.6385e+00 -5.2870e+00 HW 396 WAT_396 4.1700e-01
1208 O -1.2000e+00 4.8422e+00 -1.1646e+01 OW 397 WAT_397 -8.3400e-01
1209 H1 -1.3100e+00 4.6878e+00 -1.0708e+01 HW 397 WAT_397 4.1700e-01
1210 H2 -4.3922e-01 4.3143e+00 -1.1889e+01 HW 397 WAT_397 4.1700e-01
1211 O -6.8140e+00 8.3531e+00 -1.1108e+01 OW 398 WAT_398 -8.3400e-01
1212 H1 -6.8946e+00 7.4386e+00 -1.1379e+01 HW 398 WAT_398 4.1700e-01
1213 H2 -7.2275e+00 8.8498e+00 -1.1814e+01 HW 398 WAT_398 4.1700e-01
1214 O -6.1047e+00 1.5445e-01 -6.3144e+00 OW 399 WAT_399 -8.3400e-01
1215 H1 -6.9787e+00 4.8796e-01 -6.5171e+00 HW 399 WAT_399 4.1700e-01
1216 H2 -6.2136e+00 -3.1823e-01 -5.4892e+00 HW 399 WAT_399 4.1700e-01
1217 O -7.0486e+00 7.2113e+00 -1.3668e+00 OW 400 WAT_400 -8.3400e-01
1218 H1 -6.7232e+00 6.3777e+00 -1.7066e+00 HW 400 WAT_400 4.1700e-01
1219 H2 -6.2605e+00 7.7342e+00 -1.2190e+00 HW 400 WAT_400 4.1700e-01
1220 O -1.1230e+01 5.8126e+00 -1.3478e+01 OW 401 WAT_401 -8.3400e-01
1221 H1 -1.1938e+01 6.2812e+00 -1.3037e+01 HW 401 WAT_401 4.1700e-01
1222 H2 -1.0945e+01 5.1548e+00 -1.2844e+01 HW 401 WAT_401 4.1700e-01
1223 O -6.8455e+00 1.5912e+00 -2.6413e+00 OW 402 WAT_402 -8.3400e-01
1224 H1 -6.2315e+00 1.9092e+00 -3.3032e+00 HW 402 WAT_402 4.1700e-01
1225 H2 -6.3005e+00 1.1061e+00 -2.0217e+00 HW 402 WAT_402 4.1700e-01
1226 O -6.3503e+00 4.6598e+00 -2.2397e+00 OW 403 WAT_403 -8.3400e-01
1227 H1 -7.0388e+00 3.9980e+00 -2.3047e+00 HW 403 WAT_403 4.1700e-01
1228 H2 -5.6297e+00 4.2137e+00 -1.7949e+00 HW 403 WAT_403 4.1700e-01
1229 O -8.0204e+00 1.1030e+01 -3.0009e+00 OW 404 WAT_404 -8.3400e-01
1230 H1 -8.0867e+00 1.0110e+01 -3.2551e+00 HW 404 WAT_404 4.1700e-01
1231 H2 -8.6499e+00 1.1128e+01 -2.2864e+00 HW 404 WAT_404 4.1700e-01
1232 O -5.5978e+00 9.0548e+00 -5.1543e+00 OW 405 WAT_405 -8.3400e-01
1233 H1 -6.1243e+00 9.5791e+00 -5.7578e+00 HW 405 WAT_405 4.1700e-01
1234 H2 -5.2546e+00 9.6876e+00 -4.5234e+00 HW 405 WAT_405 4.1700e-01
1235 O -7.2178e+00 7.9800e+00 -7.7473e+00 OW 406 WAT_406 -8.3400e-01
1236 H1 -7.9496e+00 8.4887e+00 -7.3983e+00 HW 406 WAT_406 4.1700e-01
1237 H2 -7.6153e+00 7.1630e+00 -8.0484e+00 HW 406 WAT_406 4.1700e-01
1238 O -1.0273e+01 1.0770e+01 -5.1144e+00 OW 407 WAT_407 -8.3400e-01
1239 H1 -9.8541e+00 1.1613e+01 -5.2867e+00 HW 407 WAT_407 4.1700e-01
1240 H2 -1.1192e+01 1.0907e+01 -5.3437e+00 HW 407 WAT_407 4.1700e-01
1241 O -1.0261e+01 1.2979e+01 -1.2998e+01 OW 408 WAT_408 -8.3400e-01
1242 H1 -9.5742e+00 1.3526e+01 -1.2617e+01 HW 408 WAT_408 4.1700e-01
1243 H2 -1.1048e+01 1.3523e+01 -1.2963e+01 HW 408 WAT_408 4.1700e-01
1244 O -1.0578e+00 1.3598e+01 -3.0276e+00 OW 409 WAT_409 -8.3400e-01
1245 H1 -9.3151e-01 1.3359e+01 -3.9459e+00 HW 409 WAT_409 4.1700e-01
1246 H2 -1.0157e+00 1.2766e+01 -2.5554e+00 HW 409 WAT_409 4.1700e-01
1247 O -7.9366e+00 8.5011e+00 -3.7306e+00 OW 410 WAT_410 -8.3400e-01
1248 H1 -7.8169e+00 7.9052e+00 -2.9911e+00 HW 410 WAT_410 4.1700e-01
1249 H2 -7.0772e+00 8.5381e+00 -4.1505e+00 HW 410 WAT_410 4.1700e-01
1250 O -8.3572e+00 1.0714e+00 -7.3751e+00 OW 411 WAT_411 -8.3400e-01
1251 H1 -9.1400e+00 1.5460e+00 -7.0954e+00 HW 411 WAT_411 4.1700e-01
1252 H2 -8.6509e+00 1.6692e-01 -7.4838e+00 HW 411 WAT_411 4.1700e-01
1253 O -5.0345e+00 1.0817e+01 -3.0840e+00 OW 412 WAT_412 -8.3400e-01
1254 H1 -4.6204e+00 1.0972e+01 -2.2349e+00 HW 412 WAT_412 4.1700e-01
1255 H2 -5.9694e+00 1.0943e+01 -2.9214e+00 HW 412 WAT_412 4.1700e-01
1256 O -1.1170e+01 5.0433e+00 -2.4730e+00 OW 413 WAT_413 -8.3400e-01
1257 H1 -1.0580e+01 4.7349e+00 -1.7852e+00 HW 413 WAT_413 4.1700e-01
1258 H2 -1.1988e+01 4.5712e+00 -2.3170e+00 HW 413 WAT_413 4.1700e-01
1259 O -6.7552e+00 3.4334e+00 -8.3350e+00 OW 414 WAT_414 -8.3400e-01
1260 H1 -6.7379e+00 3.8843e+00 -7.4908e+00 HW 414 WAT_414 4.1700e-01
1261 H2 -7.0036e+00 2.5340e+00 -8.1217e+00 HW 414 WAT_414 4.1700e-01
1262 O -2.3973e+00 3.4491e+00 -4.6360e+00 OW 415 WAT_415 -8.3400e-01
1263 H1 -2.8999e+00 4.1896e+00 -4.2966e+00 HW 415 WAT_415 4.1700e-01
1264 H2 -1.5816e+00 3.8375e+00 -4.9523e+00 HW 415 WAT_415 4.1700e-01
1265 O -7.5687e+00 1.1707e+01 -1.3433e+01 OW 416 WAT_416 -8.3400e-01
1266 H1 -8.1870e+00 1.2172e+01 -1.3997e+01 HW 416 WAT_416 4.1700e-01
1267 H2 -7.0564e+00 1.2399e+01 -1.3016e+01 HW 416 WAT_416 4.1700e-01
1268 O -1.2447e+01 1.6401e+00 -1.3259e+01 OW 417 WAT_417 -8.3400e-01
1269 H1 -1.3077e+01 9.3883e-01 -1.3092e+01 HW 417 WAT_417 4.1700e-01
1270 H2 -1.2986e+01 2.4005e+00 -1.3476e+01 HW 417 WAT_417 4.1700e-01
1271 O -4.5623e+00 8.1571e+00 -1.0800e+00 OW 418 WAT_418 -8.3400e-01
1272 H1 -3.9802e+00 7.4023e+00 -1.1680e+00 HW 418 WAT_418 4.1700e-01
1273 H2 -4.3861e+00 8.6878e+00 -1.8569e+00 HW 418 WAT_418 4.1700e-01
1274 O -1.0780e+01 4.6554e+00 -9.3421e+00 OW 419 WAT_419 -8.3400e-01
1275 H1 -1.0776e+01 4.2144e+00 -1.0192e+01 HW 419 WAT_419 4.1700e-01
1276 H2 -9.8849e+00 4.9772e+00 -9.2349e+00 HW 419 WAT_419 4.1700e-01
1277 O -5.6415e+00 1.1414e+01 -6.9819e+00 OW 420 WAT_420 -8.3400e-01
1278 H1 -5.2246e+00 1.1200e+01 -7.8166e+00 HW 420 WAT_420 4.1700e-01
1279 H2 -4.9175e+00 1.1671e+01 -6.4111e+00 HW 420 WAT_420 4.1700e-01
1280 O -3.7455e+00 1.3232e+01 -1.3221e+01 OW 421 WAT_421 -8.3400e-01
1281 H1 -3.8558e+00 1.2290e+01 -1.3096e+01 HW 421 WAT_421 4.1700e-01
1282 H2 -3.7487e+00 1.3594e+01 -1.2335e+01 HW 421 WAT_421 4.1700e-01
1283 O -1.2130e+01 1.3072e+01 -8.9190e+00 OW 422 WAT_422 -8.3400e-01
1284 H1 -1.2427e+01 1.2467e+01 -9.5982e+00 HW 422 WAT_422 4.1700e-01
1285 H2 -1.1180e+01 1.3110e+01 -9.0301e+00 HW 422 WAT_422 4.1700e-01
1286 O -6.3477e+00 1.2219e+01 -1.0405e+01 OW 423 WAT_423 -8.3400e-01
1287 H1 -5.9953e+00 1.1622e+01 -1.1065e+01 HW 423 WAT_423 4.1700e-01
1288 H2 -7.2314e+00 1.1893e+01 -1.0234e+01 HW 423 WAT_423 4.1700e-01
1289 O -3.3624e-01 1.1348e+01 -1.0726e+01 OW 424 WAT_424 -8.3400e-01
1290 H1 3.4645e-02 1.0564e+01 -1.1132e+01 HW 424 WAT_424 4.1700e-01
1291 H2 3.0396e-01 1.2037e+01 -1.0904e+01 HW 424 WAT_424 4.1700e-01
1292 O -1.1393e+01 2.1681e+00 -8.3410e+00 OW 425 WAT_425 -8.3400e-01
1293 H1 -1.1096e+01 3.0744e+00 -8.4217e+00 HW 425 WAT_425 4.1700e-01
1294 H2 -1.0845e+01 1.6800e+00 -8.9550e+00 HW 425 WAT_425 4.1700e-01
1295 O -1.0479e+01 8.7156e+00 -7.5955e+00 OW 426 WAT_426 -8.3400e-01
1296 H1 -1.0112e+01 8.2415e+00 -6.8494e+00 HW 426 WAT_426 4.1700e-01
1297 H2 -1.0669e+01 9.5898e+00 -7.2547e+00 HW 426 WAT_426 4.1700e-01
1298 O -4.1435e+00 5.7112e+00 -3.4667e+00 OW 427 WAT_427 -8.3400e-01
1299 H1 -4.9942e+00 5.4117e+00 -3.1458e+00 HW 427 WAT_427 4.1700e-01
1300 H2 -4.3033e+00 5.9554e+00 -4.3783e+00 HW 427 WAT_427 4.1700e-01
1301 O -7.1980e+00 2.5377e+00 -1.2038e+01 OW 428 WAT_428 -8.3400e-01
1302 H1 -7.3213e+00 2.5563e+00 -1.2988e+01 HW 428 WAT_428 4.1700e-01
1303 H2 -6.2496e+00 2.5856e+00 -1.1919e+01 HW 428 WAT_428 4.1700e-01
1304 O -1.9397e+00 7.0328e+00 -6.5974e+00 OW 429 WAT_429 -8.3400e-01
1305 H1 -2.8894e+00 6.9991e+00 -6.4829e+00 HW 429 WAT_429 4.1700e-01
1306 H2 -1.7584e+00 7.9428e+00 -6.8324e+00 HW 429 WAT_429 4.1700e-01
1307 O -1.9412e+00 1.4053e+00 -1.1319e+01 OW 430 WAT_430 -8.3400e-01
1308 H1 -2.0024e+00 4.6139e-01 -1.1466e+01 HW 430 WAT_430 4.1700e-01
1309 H2 -1.1620e+00 1.5133e+00 -1.0774e+01 HW 430 WAT_430 4.1700e-01
1310 O -1.2321e+01 9.1850e-01 -8.2374e-01 OW 431 WAT_431 -8.3400e-01
1311 H1 -1.2603e+01 1.4219e+00 -1.5877e+00 HW 431 WAT_431 4.1700e-01
1312 H2 -1.1939e+01 1.2067e-01 -1.1895e+00 HW 431 WAT_431 4.1700e-01
1313 O -4.1922e+00 5.0488e+00 -9.2874e+00 OW 432 WAT_432 -8.3400e-01
1314 H1 -4.8966e+00 5.3373e+00 -8.7071e+00 HW 432 WAT_432 4.1700e-01
1315 H2 -3.8310e+00 5.8589e+00 -9.6475e+00 HW 432 WAT_432 4.1700e-01
1316 O -1.2239e+01 6.9550e+00 -9.1988e+00 OW 433 WAT_433 -8.3400e-01
1317 H1 -1.1732e+01 7.4531e+00 -8.5583e+00 HW 433 WAT_433 4.1700e-01
1318 H2 -1.1708e+01 6.1785e+00 -9.3748e+00 HW 433 WAT_433 4.1700e-01
1319 O -3.4023e+00 1.0959e+01 -8.8878e+00 OW 434 WAT_434 -8.3400e-01
1320 H1 -2.6824e+00 1.1455e+01 -9.2782e+00 HW 434 WAT_434 4.1700e-01
1321 H2 -3.6041e+00 1.0281e+01 -9.5324e+00 HW 434 WAT_434 4.1700e-01
1322 O -4.1737e+00 1.0421e+01 -1.3361e+01 OW 435 WAT_435 -8.3400e-01
1323 H1 -4.7925e+00 1.0083e+01 -1.4009e+01 HW 435 WAT_435 4.1700e-01
1324 H2 -4.1913e+00 9.7769e+00 -1.2653e+01 HW 435 WAT_435 4.1700e-01
1325 O -1.0679e+01 1.8741e+00 -5.7356e+00 OW 436 WAT_436 -8.3400e-01
1326 H1 -1.1127e+01 1.8965e+00 -6.5811e+00 HW 436 WAT_436 4.1700e-01
1327 H2 -1.1312e+01 1.4760e+00 -5.1386e+00 HW 436 WAT_436 4.1700e-01
1328 O -1.1235e+00 4.4943e+00 -8.8965e+00 OW 437 WAT_437 -8.3400e-01
1329 H1 -2.0710e+00 4.5282e+00 -8.7650e+00 HW 437 WAT_437 4.1700e-01
1330 H2 -7.9848e-01 5.3082e+00 -8.5116e+00 HW 437 WAT_437 4.1700e-01
1331 O -1.3837e-01 5.1255e+00 -5.4958e+00 OW 438 WAT_438 -8.3400e-01
1332 H1 -8.4315e-01 5.5137e+00 -6.0143e+00 HW 438 WAT_438 4.1700e-01
1333 H2 1.2742e-01 5.8205e+00 -4.8937e+00 HW 438 WAT_438 4.1700e-01
1334 O -9.4941e+00 4.1402e+00 -5.8271e-01 OW 439 WAT_439 -8.3400e-01
1335 H1 -1.0184e+01 3.9474e+00 5.1903e-02 HW 439 WAT_439 4.1700e-01
1336 H2 -8.7508e+00 4.4236e+00 -5.0277e-02 HW 439 WAT_439 4.1700e-01
1337 O -1.2054e+00 5.6511e+00 -2.0626e+00 OW 440 WAT_440 -8.3400e-01
1338 H1 -1.8210e+00 6.1590e+00 -2.5911e+00 HW 440 WAT_440 4.1700e-01
1339 H2 -1.5258e+00 4.7509e+00 -2.1200e+00 HW 440 WAT_440 4.1700e-01
1340 O -8.6822e+00 1.0131e+01 -9.2269e+00 OW 441 WAT_441 -8.3400e-01
1341 H1 -9.4579e+00 9.6510e+00 -8.9371e+00 HW 441 WAT_441 4.1700e-01
1342 H2 -8.0309e+00 9.4516e+00 -9.4013e+00 HW 441 WAT_441 4.1700e-01
1343 O -1.0851e+01 1.1035e+01 -2.1770e+00 OW 442 WAT_442 -8.3400e-01
1344 H1 -1.1617e+01 1.1604e+01 -2.2615e+00 HW 442 WAT_442 4.1700e-01
1345 H2 -1.0670e+01 1.0743e+01 -3.0702e+00 HW 442 WAT_442 4.1700e-01
1346 O -5.9693e+00 1.5435e-01 -1.0625e+01 OW 443 WAT_443 -8.3400e-01
1347 H1 -5.3664e+00 7.2637e-01 -1.0150e+01 HW 443 WAT_443 4.1700e-01
1348 H2 -6.7100e+00 7.1830e-01 -1.0848e+01 HW 443 WAT_443 4.1700e-01
1349 O -9.6040e+00 7.2323e+00 -5.4788e+00 OW 444 WAT_444 -8.3400e-01
1350 H1 -9.1055e+00 7.7069e+00 -4.8136e+00 HW 444 WAT_444 4.1700e-01
1351 H2 -9.4617e+00 6.3086e+00 -5.2718e+00 HW 444 WAT_444 4.1700e-01
1352 O -1.0959e+01 9.9832e+00 -1.3386e+01 OW 445 WAT_445 -8.3400e-01
1353 H1 -1.0502e+01 1.0794e+01 -1.3160e+01 HW 445 WAT_445 4.1700e-01
1354 H2 -1.1310e+01 9.6655e+00 -1.2554e+01 HW 445 WAT_445 4.1700e-01
1355 O -1.0592e+01 7.9404e-01 -1.0601e+01 OW 446 WAT_446 -8.3400e-01
1356 H1 -1.0284e+01 2.3873e-01 -1.1317e+01 HW 446 WAT_446 4.1700e-01
1357 H2 -1.1521e+01 9.2849e-01 -1.0784e+01 HW 446 WAT_446 4.1700e-01
1358 O -1.2598e+01 9.3854e+00 -1.1083e+01 OW 447 WAT_447 -8.3400e-01
1359 H1 -1.3002e+01 8.6731e+00 -1.1578e+01 HW 447 WAT_447 4.1700e-01
1360 H2 -1.2511e+01 9.0407e+00 -1.0194e+01 HW 447 WAT_447 4.1700e-01
1361 O -9.1440e+00 4.4903e+00 -4.5964e+00 OW 448 WAT_448 -8.3400e-01
1362 H1 -9.6060e+00 4.6986e+00 -3.7844e+00 HW 448 WAT_448 4.1700e-01
1363 H2 -9.5462e+00 3.6762e+00 -4.8993e+00 HW 448 WAT_448 4.1700e-01
1364 O -1.6953e+00 9.8125e+00 -6.8903e+00 OW 449 WAT_449 -8.3400e-01
1365 H1 -2.5234e+00 9.8818e+00 -7.3653e+00 HW 449 WAT_449 4.1700e-01
1366 H2 -1.1002e+00 1.0398e+01 -7.3587e+00 HW 449 WAT_449 4.1700e-01
1367 O -4.4283e+00 3.1088e+00 -1.2060e+01 OW 450 WAT_450 -8.3400e-01
1368 H1 -3.6074e+00 2.6185e+00 -1.2018e+01 HW 450 WAT_450 4.1700e-01
1369 H2 -4.3949e+00 3.6986e+00 -1.1307e+01 HW 450 WAT_450 4.1700e-01
1370 O -9.2413e+00 1.2807e+01 -9.2199e+00 OW 451 WAT_451 -8.3400e-01
1371 H1 -9.3104e+00 1.1866e+01 -9.3810e+00 HW 451 WAT_451 4.1700e-01
1372 H2 -8.4793e+00 1.2897e+01 -8.6477e+00 HW 451 WAT_451 4.1700e-01
1373 O -1.1200e+01 7.6453e+00 -1.8058e+00 OW 452 WAT_452 -8.3400e-01
1374 H1 -1.1295e+01 6.7048e+00 -1.9557e+00 HW 452 WAT_452 4.1700e-01
1375 H2 -1.0356e+01 7.8668e+00 -2.2010e+00 HW 452 WAT_452 4.1700e-01
1376 O -2.1187e+00 6.9488e+00 -1.0119e+01 OW 453 WAT_453 -8.3400e-01
1377 H1 -1.5949e+00 6.4550e+00 -1.0750e+01 HW 453 WAT_453 4.1700e-01
1378 H2 -1.5327e+00 7.0838e+00 -9.3746e+00 HW 453 WAT_453 4.1700e-01
1379 O -3.7090e+00 1.2766e+01 -1.6195e+00 OW 454 WAT_454 -8.3400e-01
1380 H1 -2.9681e+00 1.3104e+01 -2.1227e+00 HW 454 WAT_454 4.1700e-01
1381 H2 -4.4718e+00 1.2935e+01 -2.1725e+00 HW 454 WAT_454 4.1700e-01
1382 O -2.0038e+00 7.8702e+00 -3.7861e+00 OW 455 WAT_455 -8.3400e-01
1383 H1 -2.2352e+00 7.6414e+00 -4.6863e+00 HW 455 WAT_455 4.1700e-01
1384 H2 -1.7434e+00 8.7901e+00 -3.8316e+00 HW 455 WAT_455 4.1700e-01
1385 O -8.2107e+00 5.6138e+00 -8.9930e+00 OW 456 WAT_456 -8.3400e-01
1386 H1 -7.8343e+00 4.7410e+00 -9.1057e+00 HW 456 WAT_456 4.1700e-01
1387 H2 -8.3088e+00 5.9496e+00 -9.8840e+00 HW 456 WAT_456 4.1700e-01
1388 O -1.3938e+00 8.7230e+00 -1.3420e+01 OW 457 WAT_457 -8.3400e-01
1389 H1 -1.7694e+00 7.9558e+00 -1.3852e+01 HW 457 WAT_457 4.1700e-01
1390 H2 -2.1235e+00 9.1053e+00 -1.2933e+01 HW 457 WAT_457 4.1700e-01
1391 O -1.2706e+01 1.1234e+01 -6.7551e+00 OW 458 WAT_458 -8.3400e-01
1392 H1 -1.3039e+01 1.1861e+01 -6.1130e+00 HW 458 WAT_458 4.1700e-01
1393 H2 -1.2529e+01 1.1761e+01 -7.5349e+00 HW 458 WAT_458 4.1700e-01
1394 O -4.7311e+00 6.5994e+00 -5.9448e+00 OW 459 WAT_459 -8.3400e-01
1395 H1 -5.1440e+00 7.4248e+00 -5.6908e+00 HW 459 WAT_459 4.1700e-01
1396 H2 -5.4635e+00 6.0139e+00 -6.1372e+00 HW 459 WAT_459 4.1700e-01
1397 O -6.7885e+00 1.3249e+01 -7.0660e-01 OW 460 WAT_460 -8.3400e-01
1398 H1 -7.3947e+00 1.3272e+01 -1.4470e+00 HW 460 WAT_460 4.1700e-01
1399 H2 -7.0931e+00 1.2517e+01 -1.6988e-01 HW 460 WAT_460 4.1700e-01
1400 O -9.4830e+00 1.9342e+00 -2.2805e+00 OW 461 WAT_461 -8.3400e-01
1401 H1 -9.5441e+00 2.5264e+00 -1.5310e+00 HW 461 WAT_461 4.1700e-01
1402 H2 -8.5429e+00 1.8268e+00 -2.4255e+00 HW 461 WAT_461 4.1700e-01
1403 O -5.1975e+00 2.3615e+00 -4.9302e+00 OW 462 WAT_462 -8.3400e-01
1404 H1 -5.5262e+00 1.5467e+00 -5.3100e+00 HW 462 WAT_462 4.1700e-01
1405 H2 -4.2493e+00 2.3185e+00 -5.0536e+00 HW 462 WAT_462 4.1700e-01
1406 O -4.1051e+00 -1.0082e+01 7.5845e+00 OW 463 WAT_463 -8.3400e-01
1407 H1 -5.0461e+00 -1.0067e+01 7.7593e+00 HW 463 WAT_463 4.1700e-01
1408 H2 -3.7907e+00 -1.0868e+01 8.0305e+00 HW 463 WAT_463 4.1700e-01
1409 O -1.2095e+01 -8.4035e+00 3.1192e+00 OW 464 WAT_464 -8.3400e-01
1410 H1 -1.1673e+01 -8.5695e+00 3.9623e+00 HW 464 WAT_464 4.1700e-01
1411 H2 -1.1970e+01 -9.2135e+00 2.6247e+00 HW 464 WAT_464 4.1700e-01
1412 O -5.0400e+00 -2.2636e+00 1.0464e+01 OW 465 WAT_465 -8.3400e-01
1413 H1 -5.0273e+00 -2.6673e+00 9.5964e+00 HW 465 WAT_465 4.1700e-01
1414 H2 -5.5925e+00 -1.4888e+00 1.0360e+01 HW 465 WAT_465 4.1700e-01
1415 O -9.5823e+00 -9.3797e+00 3.6688e-01 OW 466 WAT_466 -8.3400e-01
1416 H1 -9.0617e+00 -1.0095e+01 9.9373e-04 HW 466 WAT_466 4.1700e-01
1417 H2 -8.9354e+00 -8.7411e+00 6.6693e-01 HW 466 WAT_466 4.1700e-01
1418 O -1.0718e+01 -1.3118e+01 2.4230e+00 OW 467 WAT_467 -8.3400e-01
1419 H1 -1.0597e+01 -1.3159e+01 3.3715e+00 HW 467 WAT_467 4.1700e-01
1420 H2 -1.1103e+01 -1.2255e+01 2.2676e+00 HW 467 WAT_467 4.1700e-01
1421 O -3.3529e+00 -6.0430e+00 1.3461e+01 OW 468 WAT_468 -8.3400e-01
1422 H1 -4.1669e+00 -5.6133e+00 1.3724e+01 HW 468 WAT_468 4.1700e-01
1423 H2 -2.9454e+00 -5.4312e+00 1.2848e+01 HW 468 WAT_468 4.1700e-01
1424 O -8.2035e+00 -9.9154e+00 4.9094e+00 OW 469 WAT_469 -8.3400e-01
1425 H1 -9.1305e+00 -9.9817e+00 5.1383e+00 HW 469 WAT_469 4.1700e-01
1426 H2 -8.0510e+00 -8.9774e+00 4.7950e+00 HW 469 WAT_469 4.1700e-01
1427 O -1.2689e+01 -1.1018e+01 1.3497e+01 OW 470 WAT_470 -8.3400e-01
1428 H1 -1.2994e+01 -1.0139e+01 1.3722e+01 HW 470 WAT_470 4.1700e-01
1429 H2 -1.1735e+01 -1.0958e+01 1.3533e+01 HW 470 WAT_470 4.1700e-01
1430 O -1.2903e+00 -7.9882e+00 3.6132e-01 OW 471 WAT_471 -8.3400e-01
1431 H1 -1.0154e+00 -7.0803e+00 2.3324e-01 HW 471 WAT_471 4.1700e-01
1432 H2 -1.4792e+00 -8.0520e+00 1.2975e+00 HW 471 WAT_471 4.1700e-01
1433 O -8.4351e+00 -1.9515e+00 7.9477e+00 OW 472 WAT_472 -8.3400e-01
1434 H1 -9.0539e+00 -1.4958e+00 7.3772e+00 HW 472 WAT_472 4.1700e-01
1435 H2 -7.5799e+00 -1.7964e+00 7.5467e+00 HW 472 WAT_472 4.1700e-01
1436 O -6.8140e+00 -1.0421e+01 7.6665e+00 OW 473 WAT_473 -8.3400e-01
1437 H1 -6.8946e+00 -1.1336e+01 7.3956e+00 HW 473 WAT_473 4.1700e-01
1438 H2 -7.2275e+00 -9.9245e+00 6.9604e+00 HW 473 WAT_473 4.1700e-01
1439 O -1.1230e+01 -1.2962e+01 5.2963e+00 OW 474 WAT_474 -8.3400e-01
1440 H1 -1.1938e+01 -1.2493e+01 5.7376e+00 HW 474 WAT_474 4.1700e-01
1441 H2 -1.0945e+01 -1.3620e+01 5.9308e+00 HW 474 WAT_474 4.1700e-01
1442 O -1.1521e+01 -1.6449e+00 7.5420e-01 OW 475 WAT_475 -8.3400e-01
1443 H1 -1.0728e+01 -1.3560e+00 3.0238e-01 HW 475 WAT_475 4.1700e-01
1444 H2 -1.2040e+01 -2.0757e+00 7.5453e-02 HW 475 WAT_475 4.1700e-01
1445 O -1.1738e+01 -3.5826e+00 2.6514e+00 OW 476 WAT_476 -8.3400e-01
1446 H1 -1.1747e+01 -2.8496e+00 2.0358e+00 HW 476 WAT_476 4.1700e-01
1447 H2 -1.2658e+01 -3.8294e+00 2.7441e+00 HW 476 WAT_476 4.1700e-01
1448 O -1.2314e+01 -2.3328e+00 9.9927e+00 OW 477 WAT_477 -8.3400e-01
1449 H1 -1.1798e+01 -2.9440e+00 9.4675e+00 HW 477 WAT_477 4.1700e-01
1450 H2 -1.1665e+01 -1.8299e+00 1.0484e+01 HW 477 WAT_477 4.1700e-01
1451 O -5.5978e+00 -9.7195e+00 1.3620e+01 OW 478 WAT_478 -8.3400e-01
1452 H1 -6.1243e+00 -9.1952e+00 1.3017e+01 HW 478 WAT_478 4.1700e-01
1453 H2 -5.2546e+00 -9.0868e+00 1.4251e+01 HW 478 WAT_478 4.1700e-01
1454 O -7.2178e+00 -1.0794e+01 1.1027e+01 OW 479 WAT_479 -8.3400e-01
1455 H1 -7.9496e+00 -1.0286e+01 1.1376e+01 HW 479 WAT_479 4.1700e-01
1456 H2 -7.6153e+00 -1.1611e+01 1.0726e+01 HW 479 WAT_479 4.1700e-01
1457 O -1.0273e+01 -8.0048e+00 1.3660e+01 OW 480 WAT_480 -8.3400e-01
1458 H1 -9.8541e+00 -7.1616e+00 1.3488e+01 HW 480 WAT_480 4.1700e-01
1459 H2 -1.1192e+01 -7.8676e+00 1.3431e+01 HW 480 WAT_480 4.1700e-01
1460 O -1.0261e+01 -5.7957e+00 5.7761e+00 OW 481 WAT_481 -8.3400e-01
1461 H1 -9.5742e+00 -5.2488e+00 6.1569e+00 HW 481 WAT_481 4.1700e-01
1462 H2 -1.1048e+01 -5.2517e+00 5.8111e+00 HW 481 WAT_481 4.1700e-01
1463 O -2.7440e+00 -6.4161e-01 1.0818e+01 OW 482 WAT_482 -8.3400e-01
1464 H1 -3.2037e+00 1.0997e-01 1.0444e+01 HW 482 WAT_482 4.1700e-01
1465 H2 -3.3728e+00 -1.3610e+00 1.0759e+01 HW 482 WAT_482 4.1700e-01
1466 O -8.7522e+00 -3.5198e+00 1.3139e+00 OW 483 WAT_483 -8.3400e-01
1467 H1 -8.6510e+00 -3.7234e+00 3.8409e-01 HW 483 WAT_483 4.1700e-01
1468 H2 -9.6520e+00 -3.7740e+00 1.5187e+00 HW 483 WAT_483 4.1700e-01
1469 O -1.1706e+01 -1.0808e+01 1.8213e+00 OW 484 WAT_484 -8.3400e-01
1470 H1 -1.2274e+01 -1.1256e+01 1.1949e+00 HW 484 WAT_484 4.1700e-01
1471 H2 -1.0997e+01 -1.0448e+01 1.2878e+00 HW 484 WAT_484 4.1700e-01
1472 O -5.9531e+00 -2.0532e+00 6.3793e+00 OW 485 WAT_485 -8.3400e-01
1473 H1 -5.4974e+00 -2.8342e+00 6.6932e+00 HW 485 WAT_485 4.1700e-01
1474 H2 -5.6138e+00 -1.3425e+00 6.9234e+00 HW 485 WAT_485 4.1700e-01
1475 O -7.5687e+00 -7.0676e+00 5.3409e+00 OW 486 WAT_486 -8.3400e-01
1476 H1 -8.1870e+00 -6.6027e+00 4.7772e+00 HW 486 WAT_486 4.1700e-01
1477 H2 -7.0564e+00 -6.3749e+00 5.7579e+00 HW 486 WAT_486 4.1700e-01
1478 O -4.0411e+00 -2.1290e+00 1.3518e+01 OW 487 WAT_487 -8.3400e-01
1479 H1 -4.5180e+00 -1.3218e+00 1.3325e+01 HW 487 WAT_487 4.1700e-01
1480 H2 -4.7249e+00 -2.7812e+00 1.3670e+01 HW 487 WAT_487 4.1700e-01
1481 O -2.6287e+00 -1.2568e+01 4.5942e+00 OW 488 WAT_488 -8.3400e-01
1482 H1 -2.1328e+00 -1.2801e+01 5.3791e+00 HW 488 WAT_488 4.1700e-01
1483 H2 -2.8271e+00 -1.3407e+01 4.1780e+00 HW 488 WAT_488 4.1700e-01
1484 O -5.6415e+00 -7.3606e+00 1.1792e+01 OW 489 WAT_489 -8.3400e-01
1485 H1 -5.2246e+00 -7.5746e+00 1.0958e+01 HW 489 WAT_489 4.1700e-01
1486 H2 -4.9175e+00 -7.1033e+00 1.2363e+01 HW 489 WAT_489 4.1700e-01
1487 O -1.3422e+00 -8.2817e+00 3.2041e+00 OW 490 WAT_490 -8.3400e-01
1488 H1 -5.8034e-01 -7.7120e+00 3.3100e+00 HW 490 WAT_490 4.1700e-01
1489 H2 -1.3268e+00 -8.8489e+00 3.9749e+00 HW 490 WAT_490 4.1700e-01
1490 O -3.7455e+00 -5.5420e+00 5.5532e+00 OW 491 WAT_491 -8.3400e-01
1491 H1 -3.8558e+00 -6.4845e+00 5.6781e+00 HW 491 WAT_491 4.1700e-01
1492 H2 -3.7487e+00 -5.1804e+00 6.4395e+00 HW 491 WAT_491 4.1700e-01
1493 O -1.2130e+01 -5.7022e+00 9.8553e+00 OW 492 WAT_492 -8.3400e-01
1494 H1 -1.2427e+01 -6.3076e+00 9.1761e+00 HW 492 WAT_492 4.1700e-01
1495 H2 -1.1180e+01 -5.6645e+00 9.7443e+00 HW 492 WAT_492 4.1700e-01
1496 O -6.3477e+00 -6.5555e+00 8.3691e+00 OW 493 WAT_493 -8.3400e-01
1497 H1 -5.9953e+00 -7.1527e+00 7.7092e+00 HW 493 WAT_493 4.1700e-01
1498 H2 -7.2314e+00 -6.8811e+00 8.5399e+00 HW 493 WAT_493 4.1700e-01
1499 O -3.3624e-01 -7.4267e+00 8.0483e+00 OW 494 WAT_494 -8.3400e-01
1500 H1 3.4645e-02 -8.2099e+00 7.6419e+00 HW 494 WAT_494 4.1700e-01
1501 H2 3.0396e-01 -6.7377e+00 7.8700e+00 HW 494 WAT_494 4.1700e-01
1502 O -1.0479e+01 -1.0059e+01 1.1179e+01 OW 495 WAT_495 -8.3400e-01
1503 H1 -1.0112e+01 -1.0533e+01 1.1925e+01 HW 495 WAT_495 4.1700e-01
1504 H2 -1.0669e+01 -9.1846e+00 1.1520e+01 HW 495 WAT_495 4.1700e-01
1505 O -1.2742e+01 -1.4083e+00 5.5218e+00 OW 496 WAT_496 -8.3400e-01
1506 H1 -1.2918e+01 -2.3248e+00 5.3086e+00 HW 496 WAT_496 4.1700e-01
1507 H2 -1.3596e+01 -1.0496e+00 5.7616e+00 HW 496 WAT_496 4.1700e-01
1508 O -9.2304e+00 -5.8771e+00 3.0045e+00 OW 497 WAT_497 -8.3400e-01
1509 H1 -8.8888e+00 -5.1329e+00 2.5089e+00 HW 497 WAT_497 4.1700e-01
1510 H2 -1.0059e+01 -5.5640e+00 3.3670e+00 HW 497 WAT_497 4.1700e-01
1511 O -1.9397e+00 -1.1742e+01 1.2177e+01 OW 498 WAT_498 -8.3400e-01
1512 H1 -2.8894e+00 -1.1775e+01 1.2291e+01 HW 498 WAT_498 4.1700e-01
1513 H2 -1.7584e+00 -1.0832e+01 1.1942e+01 HW 498 WAT_498 4.1700e-01
1514 O -4.1922e+00 -1.3726e+01 9.4869e+00 OW 499 WAT_499 -8.3400e-01
1515 H1 -4.8966e+00 -1.3437e+01 1.0067e+01 HW 499 WAT_499 4.1700e-01
1516 H2 -3.8310e+00 -1.2915e+01 9.1269e+00 HW 499 WAT_499 4.1700e-01
1517 O -1.1688e+01 -3.3034e+00 1.2738e+01 OW 500 WAT_500 -8.3400e-01
1518 H1 -1.1929e+01 -3.0359e+00 1.1851e+01 HW 500 WAT_500 4.1700e-01
1519 H2 -1.0748e+01 -3.1328e+00 1.2793e+01 HW 500 WAT_500 4.1700e-01
1520 O -1.2239e+01 -1.1819e+01 9.5756e+00 OW 501 WAT_501 -8.3400e-01
1521 H1 -1.1732e+01 -1.1321e+01 1.0216e+01 HW 501 WAT_501 4.1700e-01
1522 H2 -1.1708e+01 -1.2596e+01 9.3995e+00 HW 501 WAT_501 4.1700e-01
1523 O -3.4023e+00 -7.8152e+00 9.8866e+00 OW 502 WAT_502 -8.3400e-01
1524 H1 -2.6824e+00 -7.3197e+00 9.4962e+00 HW 502 WAT_502 4.1700e-01
1525 H2 -3.6041e+00 -8.4934e+00 9.2420e+00 HW 502 WAT_502 4.1700e-01
1526 O -4.1737e+00 -8.3534e+00 5.4130e+00 OW 503 WAT_503 -8.3400e-01
1527 H1 -4.7925e+00 -8.6914e+00 4.7656e+00 HW 503 WAT_503 4.1700e-01
1528 H2 -4.1913e+00 -8.9974e+00 6.1209e+00 HW 503 WAT_503 4.1700e-01
1529 O -3.9550e+00 -7.0752e+00 2.7210e+00 OW 504 WAT_504 -8.3400e-01
1530 H1 -4.2428e+00 -6.6139e+00 3.5088e+00 HW 504 WAT_504 4.1700e-01
1531 H2 -3.1597e+00 -7.5354e+00 2.9894e+00 HW 504 WAT_504 4.1700e-01
1532 O -4.6614e+00 -4.2373e+00 8.3273e+00 OW 505 WAT_505 -8.3400e-01
1533 H1 -5.1233e+00 -5.0086e+00 8.6560e+00 HW 505 WAT_505 4.1700e-01
1534 H2 -3.8489e+00 -4.2107e+00 8.8326e+00 HW 505 WAT_505 4.1700e-01
1535 O -8.2165e+00 -1.3644e+01 1.9061e+00 OW 506 WAT_506 -8.3400e-01
1536 H1 -9.1562e+00 -1.3482e+01 1.9914e+00 HW 506 WAT_506 4.1700e-01
1537 H2 -7.8982e+00 -1.2925e+01 1.3597e+00 HW 506 WAT_506 4.1700e-01
1538 O -8.6554e+00 -3.2805e+00 1.2618e+01 OW 507 WAT_507 -8.3400e-01
1539 H1 -8.0111e+00 -3.0746e+00 1.3295e+01 HW 507 WAT_507 4.1700e-01
1540 H2 -8.2924e+00 -4.0417e+00 1.2165e+01 HW 507 WAT_507 4.1700e-01
1541 O -1.3837e-01 -1.3649e+01 1.3279e+01 OW 508 WAT_508 -8.3400e-01
1542 H1 -8.4315e-01 -1.3261e+01 1.2760e+01 HW 508 WAT_508 4.1700e-01
1543 H2 1.2742e-01 -1.2954e+01 1.3881e+01 HW 508 WAT_508 4.1700e-01
1544 O -7.8877e+00 -4.1751e+00 6.3884e+00 OW 509 WAT_509 -8.3400e-01
1545 H1 -7.4481e+00 -3.4327e+00 5.9739e+00 HW 509 WAT_509 4.1700e-01
1546 H2 -7.9490e+00 -3.9324e+00 7.3123e+00 HW 509 WAT_509 4.1700e-01
1547 O -1.3430e+01 -5.8828e-01 2.7374e+00 OW 510 WAT_510 -8.3400e-01
1548 H1 -1.2699e+01 -8.7236e-01 2.1898e+00 HW 510 WAT_510 4.1700e-01
1549 H2 -1.3171e+01 -8.2696e-01 3.6273e+00 HW 510 WAT_510 4.1700e-01
1550 O -8.6822e+00 -8.6433e+00 9.5474e+00 OW 511 WAT_511 -8.3400e-01
1551 H1 -9.4579e+00 -9.1233e+00 9.8373e+00 HW 511 WAT_511 4.1700e-01
1552 H2 -8.0309e+00 -9.3228e+00 9.3730e+00 HW 511 WAT_511 4.1700e-01
1553 O -5.9973e+00 -9.1147e+00 2.4202e+00 OW 512 WAT_512 -8.3400e-01
1554 H1 -5.5579e+00 -9.9525e+00 2.2740e+00 HW 512 WAT_512 4.1700e-01
1555 H2 -5.2844e+00 -8.4818e+00 2.5066e+00 HW 512 WAT_512 4.1700e-01
1556 O -1.3199e+01 -1.2330e+01 6.4984e-02 OW 513 WAT_513 -8.3400e-01
1557 H1 -1.3400e+01 -1.3193e+01 4.2632e-01 HW 513 WAT_513 4.1700e-01
1558 H2 -1.3370e+01 -1.2417e+01 -8.7286e-01 HW 513 WAT_513 4.1700e-01
1559 O -6.4098e+00 -1.2021e+01 4.9016e+00 OW 514 WAT_514 -8.3400e-01
1560 H1 -7.0089e+00 -1.1298e+01 4.7180e+00 HW 514 WAT_514 4.1700e-01
1561 H2 -5.8618e+00 -1.2084e+01 4.1193e+00 HW 514 WAT_514 4.1700e-01
1562 O -9.6040e+00 -1.1542e+01 1.3296e+01 OW 515 WAT_515 -8.3400e-01
1563 H1 -9.1055e+00 -1.1067e+01 1.3961e+01 HW 515 WAT_515 4.1700e-01
1564 H2 -9.4617e+00 -1.2466e+01 1.3503e+01 HW 515 WAT_515 4.1700e-01
1565 O -9.5749e+00 -1.4419e+00 1.0820e+01 OW 516 WAT_516 -8.3400e-01
1566 H1 -9.2871e+00 -1.6965e+00 9.9429e+00 HW 516 WAT_516 4.1700e-01
1567 H2 -9.0626e+00 -1.9942e+00 1.1410e+01 HW 516 WAT_516 4.1700e-01
1568 O -1.0959e+01 -8.7911e+00 5.3887e+00 OW 517 WAT_517 -8.3400e-01
1569 H1 -1.0502e+01 -7.9806e+00 5.6147e+00 HW 517 WAT_517 4.1700e-01
1570 H2 -1.1310e+01 -9.1088e+00 6.2205e+00 HW 517 WAT_517 4.1700e-01
1571 O -1.2598e+01 -9.3890e+00 7.6914e+00 OW 518 WAT_518 -8.3400e-01
1572 H1 -1.3002e+01 -1.0101e+01 7.1960e+00 HW 518 WAT_518 4.1700e-01
1573 H2 -1.2511e+01 -9.7336e+00 8.5802e+00 HW 518 WAT_518 4.1700e-01
1574 O -1.6953e+00 -8.9619e+00 1.1884e+01 OW 519 WAT_519 -8.3400e-01
1575 H1 -2.5234e+00 -8.8926e+00 1.1409e+01 HW 519 WAT_519 4.1700e-01
1576 H2 -1.1002e+00 -8.3764e+00 1.1416e+01 HW 519 WAT_519 4.1700e-01
1577 O -7.7625e+00 -7.3626e+00 1.2226e+00 OW 520 WAT_520 -8.3400e-01
1578 H1 -8.3115e+00 -6.9156e+00 1.8669e+00 HW 520 WAT_520 4.1700e-01
1579 H2 -7.1406e+00 -7.8677e+00 1.7464e+00 HW 520 WAT_520 4.1700e-01
1580 O -1.1003e+01 -6.4246e+00 6.1844e-01 OW 521 WAT_521 -8.3400e-01
1581 H1 -1.1108e+01 -7.0393e+00 1.3446e+00 HW 521 WAT_521 4.1700e-01
1582 H2 -1.1170e+01 -6.9480e+00 -1.6526e-01 HW 521 WAT_521 4.1700e-01
1583 O -4.2798e-01 -1.2840e+00 1.3539e+01 OW 522 WAT_522 -8.3400e-01
1584 H1 -9.2215e-01 -8.8706e-01 1.2822e+01 HW 522 WAT_522 4.1700e-01
1585 H2 -1.0367e+00 -1.9090e+00 1.3933e+01 HW 522 WAT_522 4.1700e-01
1586 O -9.2413e+00 -5.9676e+00 9.5544e+00 OW 523 WAT_523 -8.3400e-01
1587 H1 -9.3104e+00 -6.9086e+00 9.3933e+00 HW 523 WAT_523 4.1700e-01
1588 H2 -8.4793e+00 -5.8775e+00 1.0127e+01 HW 523 WAT_523 4.1700e-01
1589 O -7.3822e+00 -5.2773e+00 1.1336e+01 OW 524 WAT_524 -8.3400e-01
1590 H1 -6.7399e+00 -5.9780e+00 1.1449e+01 HW 524 WAT_524 4.1700e-01
1591 H2 -6.8572e+00 -4.4974e+00 1.1155e+01 HW 524 WAT_524 4.1700e-01
1592 O -5.2265e+00 -1.2049e+01 2.3257e+00 OW 525 WAT_525 -8.3400e-01
1593 H1 -4.3385e+00 -1.1738e+01 2.1509e+00 HW 525 WAT_525 4.1700e-01
1594 H2 -5.2560e+00 -1.2922e+01 1.9338e+00 HW 525 WAT_525 4.1700e-01
1595 O -2.1187e+00 -1.1826e+01 8.6550e+00 OW 526 WAT_526 -8.3400e-01
1596 H1 -1.5949e+00 -1.2319e+01 8.0240e+00 HW 526 WAT_526 4.1700e-01
1597 H2 -1.5327e+00 -1.1691e+01 9.3997e+00 HW 526 WAT_526 4.1700e-01
1598 O -1.0110e+01 -1.0011e+00 6.0087e+00 OW 527 WAT_527 -8.3400e-01
1599 H1 -9.8562e+00 -1.0390e+00 5.0866e+00 HW 527 WAT_527 4.1700e-01
1600 H2 -1.1059e+01 -1.1278e+00 6.0015e+00 HW 527 WAT_527 4.1700e-01
1601 O -1.3938e+00 -1.0051e+01 5.3543e+00 OW 528 WAT_528 -8.3400e-01
1602 H1 -1.7694e+00 -1.0819e+01 4.9224e+00 HW 528 WAT_528 4.1700e-01
1603 H2 -2.1235e+00 -9.6691e+00 5.8418e+00 HW 528 WAT_528 4.1700e-01
1604 O -1.2706e+01 -7.5400e+00 1.2019e+01 OW 529 WAT_529 -8.3400e-01
1605 H1 -1.3039e+01 -6.9131e+00 1.2661e+01 HW 529 WAT_529 4.1700e-01
1606 H2 -1.2529e+01 -7.0138e+00 1.1239e+01 HW 529 WAT_529 4.1700e-01
1607 O -2.5759e+00 -4.1080e+00 1.1750e+01 OW 530 WAT_530 -8.3400e-01
1608 H1 -3.2595e+00 -3.4381e+00 1.1741e+01 HW 530 WAT_530 4.1700e-01
1609 H2 -2.0365e+00 -3.9099e+00 1.0984e+01 HW 530 WAT_530 4.1700e-01
1610 O -4.7311e+00 -1.2175e+01 1.2830e+01 OW 531 WAT_531 -8.3400e-01
1611 H1 -5.1440e+00 -1.1350e+01 1.3084e+01 HW 531 WAT_531 4.1700e-01
1612 H2 -5.4635e+00 -1.2760e+01 1.2637e+01 HW 531 WAT_531 4.1700e-01
1613 O -9.0175e+00 -1.2986e+00 2.6571e+00 OW 532 WAT_532 -8.3400e-01
1614 H1 -8.1224e+00 -9.6007e-01 2.6789e+00 HW 532 WAT_532 4.1700e-01
1615 H2 -8.9857e+00 -2.0206e+00 2.0295e+00 HW 532 WAT_532 4.1700e-01
1616 O -2.1025e+00 -2.9111e+00 9.2599e+00 OW 533 WAT_533 -8.3400e-01
1617 H1 -1.9778e+00 -2.0880e+00 9.7323e+00 HW 533 WAT_533 4.1700e-01
1618 H2 -1.2360e+00 -3.1220e+00 8.9123e+00 HW 533 WAT_533 4.1700e-01
1619 O -2.9551e+00 -1.0738e+01 1.7937e+00 OW 534 WAT_534 -8.3400e-01
1620 H1 -3.0387e+00 -1.0307e+01 9.4335e-01 HW 534 WAT_534 4.1700e-01
1621 H2 -2.2356e+00 -1.0278e+01 2.2264e+00 HW 534 WAT_534 4.1700e-01
1622 O -4.1051e+00 -1.0082e+01 -1.1190e+01 OW 535 WAT_535 -8.3400e-01
1623 H1 -5.0461e+00 -1.0067e+01 -1.1015e+01 HW 535 WAT_535 4.1700e-01
1624 H2 -3.7907e+00 -1.0868e+01 -1.0744e+01 HW 535 WAT_535 4.1700e-01
1625 O -1.8776e+00 -8.2815e+00 -3.9036e+00 OW 536 WAT_536 -8.3400e-01
1626 H1 -2.6028e+00 -7.6887e+00 -4.1007e+00 HW 536 WAT_536 4.1700e-01
1627 H2 -1.3501e+00 -8.2892e+00 -4.7023e+00 HW 536 WAT_536 4.1700e-01
1628 O -5.0400e+00 -2.2636e+00 -8.3102e+00 OW 537 WAT_537 -8.3400e-01
1629 H1 -5.0273e+00 -2.6673e+00 -9.1780e+00 HW 537 WAT_537 4.1700e-01
1630 H2 -5.5925e+00 -1.4888e+00 -8.4140e+00 HW 537 WAT_537 4.1700e-01
1631 O -3.3529e+00 -6.0430e+00 -5.3131e+00 OW 538 WAT_538 -8.3400e-01
1632 H1 -4.1669e+00 -5.6133e+00 -5.0505e+00 HW 538 WAT_538 4.1700e-01
1633 H2 -2.9454e+00 -5.4312e+00 -5.9262e+00 HW 538 WAT_538 4.1700e-01
1634 O -8.2035e+00 -9.9154e+00 -1.3865e+01 OW 539 WAT_539 -8.3400e-01
1635 H1 -9.1305e+00 -9.9817e+00 -1.3636e+01 HW 539 WAT_539 4.1700e-01
1636 H2 -8.0510e+00 -8.9774e+00 -1.3979e+01 HW 539 WAT_539 4.1700e-01
1637 O -1.2689e+01 -1.1018e+01 -5.2771e+00 OW 540 WAT_540 -8.3400e-01
1638 H1 -1.2994e+01 -1.0139e+01 -5.0521e+00 HW 540 WAT_540 4.1700e-01
1639 H2 -1.1735e+01 -1.0958e+01 -5.2414e+00 HW 540 WAT_540 4.1700e-01
1640 O -8.4351e+00 -1.9515e+00 -1.0827e+01 OW 541 WAT_541 -8.3400e-01
1641 H1 -9.0539e+00 -1.4958e+00 -1.1397e+01 HW 541 WAT_541 4.1700e-01
1642 H2 -7.5799e+00 -1.7964e+00 -1.1228e+01 HW 541 WAT_541 4.1700e-01
1643 O -9.5660e+00 -4.6441e-01 -3.7399e+00 OW 542 WAT_542 -8.3400e-01
1644 H1 -9.6401e+00 4.3910e-01 -3.4327e+00 HW 542 WAT_542 4.1700e-01
1645 H2 -1.0468e+01 -7.8323e-01 -3.7677e+00 HW 542 WAT_542 4.1700e-01
1646 O -6.8140e+00 -1.0421e+01 -1.1108e+01 OW 543 WAT_543 -8.3400e-01
1647 H1 -6.8946e+00 -1.1336e+01 -1.1379e+01 HW 543 WAT_543 4.1700e-01
1648 H2 -7.2275e+00 -9.9245e+00 -1.1814e+01 HW 543 WAT_543 4.1700e-01
1649 O -7.0486e+00 -1.1563e+01 -1.3668e+00 OW 544 WAT_544 -8.3400e-01
1650 H1 -6.7232e+00 -1.2397e+01 -1.7066e+00 HW 544 WAT_544 4.1700e-01
1651 H2 -6.2605e+00 -1.1040e+01 -1.2190e+00 HW 544 WAT_544 4.1700e-01
1652 O -1.1230e+01 -1.2962e+01 -1.3478e+01 OW 545 WAT_545 -8.3400e-01
1653 H1 -1.1938e+01 -1.2493e+01 -1.3037e+01 HW 545 WAT_545 4.1700e-01
1654 H2 -1.0945e+01 -1.3620e+01 -1.2844e+01 HW 545 WAT_545 4.1700e-01
1655 O -1.2413e+01 -3.1505e+00 -1.4840e+00 OW 546 WAT_546 -8.3400e-01
1656 H1 -1.2441e+01 -2.7462e+00 -2.3511e+00 HW 546 WAT_546 4.1700e-01
1657 H2 -1.2576e+01 -4.0795e+00 -1.6468e+00 HW 546 WAT_546 4.1700e-01
1658 O -1.2314e+01 -2.3328e+00 -8.7816e+00 OW 547 WAT_547 -8.3400e-01
1659 H1 -1.1798e+01 -2.9440e+00 -9.3068e+00 HW 547 WAT_547 4.1700e-01
1660 H2 -1.1665e+01 -1.8299e+00 -8.2905e+00 HW 547 WAT_547 4.1700e-01
1661 O -8.0204e+00 -7.7443e+00 -3.0009e+00 OW 548 WAT_548 -8.3400e-01
1662 H1 -8.0867e+00 -8.6648e+00 -3.2551e+00 HW 548 WAT_548 4.1700e-01
1663 H2 -8.6499e+00 -7.6468e+00 -2.2864e+00 HW 548 WAT_548 4.1700e-01
1664 O -5.5978e+00 -9.7195e+00 -5.1543e+00 OW 549 WAT_549 -8.3400e-01
1665 H1 -6.1243e+00 -9.1952e+00 -5.7578e+00 HW 549 WAT_549 4.1700e-01
1666 H2 -5.2546e+00 -9.0868e+00 -4.5234e+00 HW 549 WAT_549 4.1700e-01
1667 O -7.2178e+00 -1.0794e+01 -7.7473e+00 OW 550 WAT_550 -8.3400e-01
1668 H1 -7.9496e+00 -1.0286e+01 -7.3983e+00 HW 550 WAT_550 4.1700e-01
1669 H2 -7.6153e+00 -1.1611e+01 -8.0484e+00 HW 550 WAT_550 4.1700e-01
1670 O -1.0273e+01 -8.0048e+00 -5.1144e+00 OW 551 WAT_551 -8.3400e-01
1671 H1 -9.8541e+00 -7.1616e+00 -5.2867e+00 HW 551 WAT_551 4.1700e-01
1672 H2 -1.1192e+01 -7.8676e+00 -5.3437e+00 HW 551 WAT_551 4.1700e-01
1673 O -1.0261e+01 -5.7957e+00 -1.2998e+01 OW 552 WAT_552 -8.3400e-01
1674 H1 -9.5742e+00 -5.2488e+00 -1.2617e+01 HW 552 WAT_552 4.1700e-01
1675 H2 -1.1048e+01 -5.2517e+00 -1.2963e+01 HW 552 WAT_552 4.1700e-01
1676 O -2.7440e+00 -6.4161e-01 -7.9565e+00 OW 553 WAT_553 -8.3400e-01
1677 H1 -3.2037e+00 1.0997e-01 -8.3307e+00 HW 553 WAT_553 4.1700e-01
1678 H2 -3.3728e+00 -1.3610e+00 -8.0150e+00 HW 553 WAT_553 4.1700e-01
1679 O -7.9366e+00 -1.0273e+01 -3.7306e+00 OW 554 WAT_554 -8.3400e-01
1680 H1 -7.8169e+00 -1.0869e+01 -2.9911e+00 HW 554 WAT_554 4.1700e-01
1681 H2 -7.0772e+00 -1.0236e+01 -4.1505e+00 HW 554 WAT_554 4.1700e-01
1682 O -5.0345e+00 -7.9569e+00 -3.0840e+00 OW 555 WAT_555 -8.3400e-01
1683 H1 -4.6204e+00 -7.8024e+00 -2.2349e+00 HW 555 WAT_555 4.1700e-01
1684 H2 -5.9694e+00 -7.8314e+00 -2.9214e+00 HW 555 WAT_555 4.1700e-01
1685 O -5.9531e+00 -2.0532e+00 -1.2395e+01 OW 556 WAT_556 -8.3400e-01
1686 H1 -5.4974e+00 -2.8342e+00 -1.2081e+01 HW 556 WAT_556 4.1700e-01
1687 H2 -5.6138e+00 -1.3425e+00 -1.1851e+01 HW 556 WAT_556 4.1700e-01
1688 O -7.5687e+00 -7.0676e+00 -1.3433e+01 OW 557 WAT_557 -8.3400e-01
1689 H1 -8.1870e+00 -6.6027e+00 -1.3997e+01 HW 557 WAT_557 4.1700e-01
1690 H2 -7.0564e+00 -6.3749e+00 -1.3016e+01 HW 557 WAT_557 4.1700e-01
1691 O -4.5623e+00 -1.0617e+01 -1.0800e+00 OW 558 WAT_558 -8.3400e-01
1692 H1 -3.9802e+00 -1.1372e+01 -1.1680e+00 HW 558 WAT_558 4.1700e-01
1693 H2 -4.3861e+00 -1.0087e+01 -1.8569e+00 HW 558 WAT_558 4.1700e-01
1694 O -4.0411e+00 -2.1290e+00 -5.2567e+00 OW 559 WAT_559 -8.3400e-01
1695 H1 -4.5180e+00 -1.3218e+00 -5.4495e+00 HW 559 WAT_559 4.1700e-01
1696 H2 -4.7249e+00 -2.7812e+00 -5.1041e+00 HW 559 WAT_559 4.1700e-01
1697 O -5.6415e+00 -7.3606e+00 -6.9819e+00 OW 560 WAT_560 -8.3400e-01
1698 H1 -5.2246e+00 -7.5746e+00 -7.8166e+00 HW 560 WAT_560 4.1700e-01
1699 H2 -4.9175e+00 -7.1033e+00 -6.4111e+00 HW 560 WAT_560 4.1700e-01
1700 O -3.7455e+00 -5.5420e+00 -1.3221e+01 OW 561 WAT_561 -8.3400e-01
1701 H1 -3.8558e+00 -6.4845e+00 -1.3096e+01 HW 561 WAT_561 4.1700e-01
1702 H2 -3.7487e+00 -5.1804e+00 -1.2335e+01 HW 561 WAT_561 4.1700e-01
1703 O -1.2130e+01 -5.7022e+00 -8.9190e+00 OW 562 WAT_562 -8.3400e-01
1704 H1 -1.2427e+01 -6.3076e+00 -9.5982e+00 HW 562 WAT_562 4.1700e-01
1705 H2 -1.1180e+01 -5.6645e+00 -9.0301e+00 HW 562 WAT_562 4.1700e-01
1706 O -6.3477e+00 -6.5555e+00 -1.0405e+01 OW 563 WAT_563 -8.3400e-01
1707 H1 -5.9953e+00 -7.1527e+00 -1.1065e+01 HW 563 WAT_563 4.1700e-01
1708 H2 -7.2314e+00 -6.8811e+00 -1.0234e+01 HW 563 WAT_563 4.1700e-01
1709 O -3.3624e-01 -7.4267e+00 -1.0726e+01 OW 564 WAT_564 -8.3400e-01
1710 H1 3.4645e-02 -8.2099e+00 -1.1132e+01 HW 564 WAT_564 4.1700e-01
1711 H2 3.0396e-01 -6.7377e+00 -1.0904e+01 HW 564 WAT_564 4.1700e-01
1712 O -1.0479e+01 -1.0059e+01 -7.5955e+00 OW 565 WAT_565 -8.3400e-01
1713 H1 -1.0112e+01 -1.0533e+01 -6.8494e+00 HW 565 WAT_565 4.1700e-01
1714 H2 -1.0669e+01 -9.1846e+00 -7.2547e+00 HW 565 WAT_565 4.1700e-01
1715 O -1.2742e+01 -1.4083e+00 -1.3253e+01 OW 566 WAT_566 -8.3400e-01
1716 H1 -1.2918e+01 -2.3248e+00 -1.3466e+01 HW 566 WAT_566 4.1700e-01
1717 H2 -1.3596e+01 -1.0496e+00 -1.3013e+01 HW 566 WAT_566 4.1700e-01
1718 O -4.1435e+00 -1.3063e+01 -3.4667e+00 OW 567 WAT_567 -8.3400e-01
1719 H1 -4.9942e+00 -1.3363e+01 -3.1458e+00 HW 567 WAT_567 4.1700e-01
1720 H2 -4.3033e+00 -1.2819e+01 -4.3783e+00 HW 567 WAT_567 4.1700e-01
1721 O -1.9397e+00 -1.1742e+01 -6.5974e+00 OW 568 WAT_568 -8.3400e-01
1722 H1 -2.8894e+00 -1.1775e+01 -6.4829e+00 HW 568 WAT_568 4.1700e-01
1723 H2 -1.7584e+00 -1.0832e+01 -6.8324e+00 HW 568 WAT_568 4.1700e-01
1724 O -8.0888e+00 -4.9223e+00 -3.2505e+00 OW 569 WAT_569 -8.3400e-01
1725 H1 -8.0743e+00 -5.8542e+00 -3.4686e+00 HW 569 WAT_569 4.1700e-01
1726 H2 -8.7962e+00 -4.8363e+00 -2.6115e+00 HW 569 WAT_569 4.1700e-01
1727 O -4.1922e+00 -1.3726e+01 -9.2874e+00 OW 570 WAT_570 -8.3400e-01
1728 H1 -4.8966e+00 -1.3437e+01 -8.7071e+00 HW 570 WAT_570 4.1700e-01
1729 H2 -3.8310e+00 -1.2915e+01 -9.6475e+00 HW 570 WAT_570 4.1700e-01
1730 O -1.1688e+01 -3.3034e+00 -6.0362e+00 OW 571 WAT_571 -8.3400e-01
1731 H1 -1.1929e+01 -3.0359e+00 -6.9231e+00 HW 571 WAT_571 4.1700e-01
1732 H2 -1.0748e+01 -3.1328e+00 -5.9811e+00 HW 571 WAT_571 4.1700e-01
1733 O -9.5077e+00 -5.2033e-01 -5.8793e-01 OW 572 WAT_572 -8.3400e-01
1734 H1 -8.5809e+00 -7.5590e-01 -5.4433e-01 HW 572 WAT_572 4.1700e-01
1735 H2 -9.5226e+00 3.0687e-01 -1.0693e+00 HW 572 WAT_572 4.1700e-01
1736 O -1.2239e+01 -1.1819e+01 -9.1988e+00 OW 573 WAT_573 -8.3400e-01
1737 H1 -1.1732e+01 -1.1321e+01 -8.5583e+00 HW 573 WAT_573 4.1700e-01
1738 H2 -1.1708e+01 -1.2596e+01 -9.3748e+00 HW 573 WAT_573 4.1700e-01
1739 O -3.4023e+00 -7.8152e+00 -8.8878e+00 OW 574 WAT_574 -8.3400e-01
1740 H1 -2.6824e+00 -7.3197e+00 -9.2782e+00 HW 574 WAT_574 4.1700e-01
1741 H2 -3.6041e+00 -8.4934e+00 -9.5324e+00 HW 574 WAT_574 4.1700e-01
1742 O -4.1737e+00 -8.3534e+00 -1.3361e+01 OW 575 WAT_575 -8.3400e-01
1743 H1 -4.7925e+00 -8.6914e+00 -1.4009e+01 HW 575 WAT_575 4.1700e-01
1744 H2 -4.1913e+00 -8.9974e+00 -1.2653e+01 HW 575 WAT_575 4.1700e-01
1745 O -4.6614e+00 -4.2373e+00 -1.0447e+01 OW 576 WAT_576 -8.3400e-01
1746 H1 -5.1233e+00 -5.0086e+00 -1.0118e+01 HW 576 WAT_576 4.1700e-01
1747 H2 -3.8489e+00 -4.2107e+00 -9.9418e+00 HW 576 WAT_576 4.1700e-01
1748 O -8.6554e+00 -3.2805e+00 -6.1564e+00 OW 577 WAT_577 -8.3400e-01
1749 H1 -8.0111e+00 -3.0746e+00 -5.4791e+00 HW 577 WAT_577 4.1700e-01
1750 H2 -8.2924e+00 -4.0417e+00 -6.6094e+00 HW 577 WAT_577 4.1700e-01
1751 O -7.1961e+00 -1.4737e+00 -4.4581e+00 OW 578 WAT_578 -8.3400e-01
1752 H1 -6.6817e+00 -1.5629e+00 -3.6558e+00 HW 578 WAT_578 4.1700e-01
1753 H2 -8.0392e+00 -1.1278e+00 -4.1653e+00 HW 578 WAT_578 4.1700e-01
1754 O -1.3837e-01 -1.3649e+01 -5.4958e+00 OW 579 WAT_579 -8.3400e-01
1755 H1 -8.4315e-01 -1.3261e+01 -6.0143e+00 HW 579 WAT_579 4.1700e-01
1756 H2 1.2742e-01 -1.2954e+01 -4.8937e+00 HW 579 WAT_579 4.1700e-01
1757 O -7.8877e+00 -4.1751e+00 -1.2386e+01 OW 580 WAT_580 -8.3400e-01
1758 H1 -7.4481e+00 -3.4327e+00 -1.2800e+01 HW 580 WAT_580 4.1700e-01
1759 H2 -7.9490e+00 -3.9324e+00 -1.1462e+01 HW 580 WAT_580 4.1700e-01
1760 O -8.6822e+00 -8.6433e+00 -9.2269e+00 OW 581 WAT_581 -8.3400e-01
1761 H1 -9.4579e+00 -9.1233e+00 -8.9371e+00 HW 581 WAT_581 4.1700e-01
1762 H2 -8.0309e+00 -9.3228e+00 -9.4013e+00 HW 581 WAT_581 4.1700e-01
1763 O -9.7795e+00 -4.4286e+00 -1.0663e+00 OW 582 WAT_582 -8.3400e-01
1764 H1 -1.0100e+01 -5.1477e+00 -5.2172e-01 HW 582 WAT_582 4.1700e-01
1765 H2 -1.0454e+01 -3.7531e+00 -9.9269e-01 HW 582 WAT_582 4.1700e-01
1766 O -1.0851e+01 -7.7389e+00 -2.1770e+00 OW 583 WAT_583 -8.3400e-01
1767 H1 -1.1617e+01 -7.1704e+00 -2.2615e+00 HW 583 WAT_583 4.1700e-01
1768 H2 -1.0670e+01 -8.0313e+00 -3.0702e+00 HW 583 WAT_583 4.1700e-01
1769 O -9.6040e+00 -1.1542e+01 -5.4788e+00 OW 584 WAT_584 -8.3400e-01
1770 H1 -9.1055e+00 -1.1067e+01 -4.8136e+00 HW 584 WAT_584 4.1700e-01
1771 H2 -9.4617e+00 -1.2466e+01 -5.2718e+00 HW 584 WAT_584 4.1700e-01
1772 O -9.5749e+00 -1.4419e+00 -7.9547e+00 OW 585 WAT_585 -8.3400e-01
1773 H1 -9.2871e+00 -1.6965e+00 -8.8314e+00 HW 585 WAT_585 4.1700e-01
1774 H2 -9.0626e+00 -1.9942e+00 -7.3642e+00 HW 585 WAT_585 4.1700e-01
1775 O -1.0959e+01 -8.7911e+00 -1.3386e+01 OW 586 WAT_586 -8.3400e-01
1776 H1 -1.0502e+01 -7.9806e+00 -1.3160e+01 HW 586 WAT_586 4.1700e-01
1777 H2 -1.1310e+01 -9.1088e+00 -1.2554e+01 HW 586 WAT_586 4.1700e-01
1778 O -1.2598e+01 -9.3890e+00 -1.1083e+01 OW 587 WAT_587 -8.3400e-01
1779 H1 -1.3002e+01 -1.0101e+01 -1.1578e+01 HW 587 WAT_587 4.1700e-01
1780 H2 -1.2511e+01 -9.7336e+00 -1.0194e+01 HW 587 WAT_587 4.1700e-01
1781 O -1.6953e+00 -8.9619e+00 -6.8903e+00 OW 588 WAT_588 -8.3400e-01
1782 H1 -2.5234e+00 -8.8926e+00 -7.3653e+00 HW 588 WAT_588 4.1700e-01
1783 H2 -1.1002e+00 -8.3764e+00 -7.3587e+00 HW 588 WAT_588 4.1700e-01
1784 O -1.2732e+00 -9.7777e-01 -1.3591e+01 OW 589 WAT_589 -8.3400e-01
1785 H1 -1.0980e+00 -1.6640e+00 -1.4234e+01 HW 589 WAT_589 4.1700e-01
1786 H2 -1.9710e+00 -4.5306e-01 -1.3983e+01 HW 589 WAT_589 4.1700e-01
1787 O -9.2413e+00 -5.9676e+00 -9.2199e+00 OW 590 WAT_590 -8.3400e-01
1788 H1 -9.3104e+00 -6.9086e+00 -9.3810e+00 HW 590 WAT_590 4.1700e-01
1789 H2 -8.4793e+00 -5.8775e+00 -8.6477e+00 HW 590 WAT_590 4.1700e-01
1790 O -7.3822e+00 -5.2773e+00 -7.4387e+00 OW 591 WAT_591 -8.3400e-01
1791 H1 -6.7399e+00 -5.9780e+00 -7.3255e+00 HW 591 WAT_591 4.1700e-01
1792 H2 -6.8572e+00 -4.4974e+00 -7.6190e+00 HW 591 WAT_591 4.1700e-01
1793 O -1.1200e+01 -1.1129e+01 -1.8058e+00 OW 592 WAT_592 -8.3400e-01
1794 H1 -1.1295e+01 -1.2070e+01 -1.9557e+00 HW 592 WAT_592 4.1700e-01
1795 H2 -1.0356e+01 -1.0908e+01 -2.2010e+00 HW 592 WAT_592 4.1700e-01
1796 O -2.1187e+00 -1.1826e+01 -1.0119e+01 OW 593 WAT_593 -8.3400e-01
1797 H1 -1.5949e+00 -1.2319e+01 -1.0750e+01 HW 593 WAT_593 4.1700e-01
1798 H2 -1.5327e+00 -1.1691e+01 -9.3746e+00 HW 593 WAT_593 4.1700e-01
1799 O -2.0038e+00 -1.0904e+01 -3.7861e+00 OW 594 WAT_594 -8.3400e-01
1800 H1 -2.2352e+00 -1.1133e+01 -4.6863e+00 HW 594 WAT_594 4.1700e-01
1801 H2 -1.7434e+00 -9.9842e+00 -3.8316e+00 HW 594 WAT_594 4.1700e-01
1802 O -1.0110e+01 -1.0011e+00 -1.2766e+01 OW 595 WAT_595 -8.3400e-01
1803 H1 -9.8562e+00 -1.0390e+00 -1.3688e+01 HW 595 WAT_595 4.1700e-01
1804 H2 -1.1059e+01 -1.1278e+00 -1.2773e+01 HW 595 WAT_595 4.1700e-01
1805 O -1.3938e+00 -1.0051e+01 -1.3420e+01 OW 596 WAT_596 -8.3400e-01
1806 H1 -1.7694e+00 -1.0819e+01 -1.3852e+01 HW 596 WAT_596 4.1700e-01
1807 H2 -2.1235e+00 -9.6691e+00 -1.2933e+01 HW 596 WAT_596 4.1700e-01
1808 O -1.2706e+01 -7.5400e+00 -6.7551e+00 OW 597 WAT_597 -8.3400e-01
1809 H1 -1.3039e+01 -6.9131e+00 -6.1130e+00 HW 597 WAT_597 4.1700e-01
1810 H2 -1.2529e+01 -7.0138e+00 -7.5349e+00 HW 597 WAT_597 4.1700e-01
1811 O -3.2953e+00 -1.2911e+00 -1.1786e+01 OW 598 WAT_598 -8.3400e-01
1812 H1 -2.6993e+00 -1.6127e+00 -1.2463e+01 HW 598 WAT_598 4.1700e-01
1813 H2 -3.0374e+00 -1.7640e+00 -1.0995e+01 HW 598 WAT_598 4.1700e-01
1814 O -2.5759e+00 -4.1080e+00 -7.0247e+00 OW 599 WAT_599 -8.3400e-01
1815 H1 -3.2595e+00 -3.4381e+00 -7.0330e+00 HW 599 WAT_599 4.1700e-01
1816 H2 -2.0365e+00 -3.9099e+00 -7.7902e+00 HW 599 WAT_599 4.1700e-01
1817 O -4.7311e+00 -1.2175e+01 -5.9448e+00 OW 600 WAT_600 -8.3400e-01
1818 H1 -5.1440e+00 -1.1350e+01 -5.6908e+00 HW 600 WAT_600 4.1700e-01
1819 H2 -5.4635e+00 -1.2760e+01 -6.1372e+00 HW 600 WAT_600 4.1700e-01
1820 O -6.7885e+00 -5.5254e+00 -7.0660e-01 OW 601 WAT_601 -8.3400e-01
1821 H1 -7.3947e+00 -5.5022e+00 -1.4470e+00 HW 601 WAT_601 4.1700e-01
1822 H2 -7.0931e+00 -6.2571e+00 -1.6988e-01 HW 601 WAT_601 4.1700e-01
1823 O -2.1025e+00 -2.9111e+00 -9.5144e+00 OW 602 WAT_602 -8.3400e-01
1824 H1 -1.9778e+00 -2.0880e+00 -9.0420e+00 HW 602 WAT_602 4.1700e-01
1825 H2 -1.2360e+00 -3.1220e+00 -9.8620e+00 HW 602 WAT_602 4.1700e-01
1826 O -5.6084e+00 -4.4778e+00 -4.2351e+00 OW 603 WAT_603 -8.3400e-01
1827 H1 -5.2728e+00 -3.8911e+00 -3.5573e+00 HW 603 WAT_603 4.1700e-01
1828 H2 -6.5284e+00 -4.6085e+00 -4.0053e+00 HW 603 WAT_603 4.1700e-01
1829 O -1.2422e+01 -1.6995e+00 -3.9986e+00 OW 604 WAT_604 -8.3400e-01
1830 H1 -1.2960e+01 -9.7493e-01 -4.3177e+00 HW 604 WAT_604 4.1700e-01
1831 H2 -1.2169e+01 -2.1765e+00 -4.7889e+00 HW 604 WAT_604 4.1700e-01
@<TRIPOS>BOND
1 1 7 1 
2 2 1 2 
3 2 8 1 
4 3 1 1 
5 3 12 1 
6 4 2 1 
7 4 9 1 
8 5 3 2 
9 5 10 1 
10 6 4 2 
11 6 5 1 
12 6 11 1 
13 14 13 2 
14 15 13 1 
15 15 24 1 
16 16 14 1 
17 17 15 2 
18 18 16 2 
19 18 17 1 
20 19 13 1 
21 20 14 1 
22 21 16 1 
23 22 17 1 
24 23 18 1 
25 25 24 1 
26 27 26 1 
27 28 26 1 
28 28 27 1 
29 30 29 1 
30 31 29 1 
31 31 30 1 
32 33 32 1 
33 34 32 1 
34 34 33 1 
35 36 35 1 
36 37 35 1 
37 37 36 1 
38 39 38 1 
39 40 38 1 
40 40 39 1 
41 41 43 1 
42 42 41 1 
43 42 43 1 
44 45 44 1 
45 46 44 1 
46 46 45 1 
47 48 47 1 
48 49 47 1 
49 49 48 1 
50 51 50 1 
51 52 50 1 
52 52 51 1 
53 54 53 1 
54 55 53 1 
55 55 54 1 
56 56 57 1 
57 56 58 1 
58 58 57 1 
59 60 59 1 
60 61 59 1 
61 61 60 1 
62 63 62 1 
63 64 62 1 
64 64 63 1 
65 66 65 1 
66 67 65 1 
67 67 66 1 
68 69 68 1 
69 70 68 1 
70 70 69 1 
71 72 71 1 
72 73 71 1 
73 73 72 1 
74 75 74 1 
75 76 74 1 
76 76 75 1 
77 78 77 1 
78 79 77 1 
79 79 78 1 
80 80 82 1 
81 81 80 1 
82 81 82 1 
83 84 83 1 
84 85 83 1 
85 85 84 1 
86 87 86 1 
87 88 86 1 
88 88 87 1 
89 90 89 1 
90 91 89 1 
91 91 90 1 
92 93 92 1 
93 94 92 1 
94 94 93 1 
95 96 95 1 
96 97 95 1 
97 97 96 1 
98 99 98 1 
99 100 98 1 
100 100 99 1 
101 102 101 1 
102 103 101 1 
103 103 102 1 
104 105 104 1 
105 106 104 1 
106 106 105 1 
107 108 107 1 
108 109 107 1 
109 109 108 1 
110 111 110 1 
111 112 110 1 
112 112 111 1 
113 113 115 1 
114 114 113 1 
115 114 115 1 
116 117 116 1 
117 118 116 1 
118 118 117 1 
119 120 119 1 
120 121 119 1 
121 121 120 1 
122 123 122 1 
123 124 122 1 
124 124 123 1 
125 125 126 1 
126 125 127 1 
127 127 126 1 
128 129 128 1 
129 130 128 1 
130 130 129 1 
131 132 131 1 
132 133 131 1 
133 133 132 1 
134 135 134 1 
135 136 134 1 
136 136 135 1 
137 138 137 1 
138 139 137 1 
139 139 138 1 
140 141 140 1 
141 142 140 1 
142 142 141 1 
143 144 143 1 
144 145 143 1 
145 145 144 1 
146 147 146 1 
147 148 146 1 
148 148 147 1 
149 150 149 1 
150 151 149 1 
151 151 150 1 
152 153 152 1 
153 154 152 1 
154 154 153 1 
155 156 155 1 
156 157 155 1 
157 157 156 1 
158 159 158 1 
159 160 158 1 
160 160 159 1 
161 161 163 1 
162 162 161 1 
163 162 163 1 
164 165 164 1 
165 166 164 1 
166 166 165 1 
167 168 167 1 
168 169 167 1 
169 169 168 1 
170 170 172 1 
171 170 171 1 
172 172 171 1 
173 174 173 1 
174 175 173 1 
175 175 174 1 
176 177 176 1 
177 178 176 1 
178 178 177 1 
179 180 179 1 
180 181 179 1 
181 181 180 1 
182 183 182 1 
183 184 182 1 
184 184 183 1 
185 186 185 1 
186 187 185 1 
187 187 186 1 
188 189 188 1 
189 190 188 1 
190 190 189 1 
191 192 191 1 
192 193 191 1 
193 193 192 1 
194 194 196 1 
195 195 194 1 
196 195 196 1 
197 197 198 1 
198 197 199 1 
199 199 198 1 
200 201 200 1 
201 202 200 1 
202 202 201 1 
203 204 203 1 
204 205 203 1 
205 205 204 1 
206 207 206 1 
207 208 206 1 
208 208 207 1 
209 209 211 1 
210 210 209 1 
211 210 211 1 
212 213 212 1 
213 214 212 1 
214 214 213 1 
215 216 215 1 
216 217 215 1 
217 217 216 1 
218 219 218 1 
219 220 218 1 
220 220 219 1 
221 221 222 1 
222 221 223 1 
223 223 222 1 
224 225 224 1 
225 226 224 1 
226 226 225 1 
227 228 227 1 
228 229 227 1 
229 229 228 1 
230 231 230 1 
231 232 230 1 
232 232 231 1 
233 234 233 1 
234 235 233 1 
235 235 234 1 
236 237 236 1 
237 238 236 1 
238 238 237 1 
239 240 239 1 
240 241 239 1 
241 241 240 1 
242 243 242 1 
243 244 242 1 
244 244 243 1 
245 246 245 1 
246 247 245 1 
247 247 246 1 
248 249 248 1 
249 250 248 1 
250 250 249 1 
251 252 251 1 
252 253 251 1 
253 253 252 1 
254 255 254 1 
255 256 254 1 
256 256 255 1 
257 258 257 1 
258 259 257 1 
259 259 258 1 
260 261 260 1 
261 262 260 1 
262 262 261 1 
263 264 263 1 
264 265 263 1 
265 265 264 1 
266 267 266 1 
267 268 266 1 
268 268 267 1 
269 270 269 1 
270 271 269 1 
271 271 270 1 
272 273 272 1 
273 274 272 1 
274 274 273 1 
275 276 275 1 
276 277 275 1 
277 277 276 1 
278 278 280 1 
279 279 278 1 
280 279 280 1 
281 282 281 1 
282 283 281 1 
283 283 282 1 
284 285 284 1 
285 286 284 1 
286 286 285 1 
287 288 287 1 
288 289 287 1 
289 289 288 1 
290 291 290 1 
291 292 290 1 
292 292 291 1 
293 294 293 1 
294 295 293 1 
295 295 294 1 
296 297 296 1 
297 298 296 1 
298 298 297 1 
299 300 299 1 
300 301 299 1 
301 301 300 1 
302 303 302 1 
303 304 302 1 
304 304 303 1 
305 306 305 1 
306 307 305 1 
307 307 306 1 
308 309 308 1 
309 310 308 1 
310 310 309 1 
311 312 311 1 
312 313 311 1 
313 313 312 1 
314 315 314 1 
315 316 314 1 
316 316 315 1 
317 318 317 1 
318 319 317 1 
319 319 318 1 
320 321 320 1 
321 322 320 1 
322 322 321 1 
323 324 323 1 
324 325 323 1 
325 325 324 1 
326 327 326 1 
327 328 326 1 
328 328 327 1 
329 329 330 1 
330 329 331 1 
331 331 330 1 
332 333 332 1 
333 334 332 1 
334 334 333 1 
335 336 335 1 
336 337 335 1 
337 337 336 1 
338 339 338 1 
339 340 338 1 
340 340 339 1 
341 342 341 1 
342 343 341 1 
343 343 342 1 
344 345 344 1 
345 346 344 1 
346 346 345 1 
347 348 347 1 
348 349 347 1 
349 349 348 1 
350 351 350 1 
351 352 350 1 
352 352 351 1 
353 354 353 1 
354 355 353 1 
355 355 354 1 
356 357 356 1 
357 358 356 1 
358 358 357 1 
359 360 359 1 
360 361 359 1 
361 361 360 1 
362 363 362 1 
363 364 362 1 
364 364 363 1 
365 366 365 1 
366 367 365 1 
367 367 366 1 
368 369 368 1 
369 370 368 1 
370 370 369 1 
371 372 371 1 
372 373 371 1 
373 373 372 1 
374 375 374 1 
375 376 374 1 
376 376 375 1 
377 378 377 1 
378 379 377 1 
379 379 378 1 
380 381 380 1 
381 382 380 1 
382 382 381 1 
383 384 383 1 
384 385 383 1 
385 385 384 1 
386 387 386 1 
387 388 386 1 
388 388 387 1 
389 390 389 1 
390 391 389 1 
391 391 390 1 
392 393 392 1 
393 394 392 1 
394 394 393 1 
395 396 395 1 
396 397 395 1 
397 397 396 1 
398 398 399 1 
399 398 400 1 
400 400 399 1 
401 402 401 1 
402 403 401 1 
403 403 402 1 
404 404 406 1 
405 405 404 1 
406 405 406 1 
407 408 407 1 
408 409 407 1 
409 409 408 1 
410 411 410 1 
411 412 410 1 
412 412 411 1 
413 414 413 1 
414 415 413 1 
415 415 414 1 
416 417 416 1 
417 418 416 1 
418 418 417 1 
419 419 420 1 
420 419 421 1 
421 421 420 1 
422 423 422 1 
423 424 422 1 
424 424 423 1 
425 426 425 1 
426 427 425 1 
427 427 426 1 
428 429 428 1 
429 430 428 1 
430 430 429 1 
431 432 431 1 
432 433 431 1 
433 433 432 1 
434 435 434 1 
435 436 434 1 
436 436 435 1 
437 438 437 1 
438 439 437 1 
439 439 438 1 
440 440 441 1 
441 440 442 1 
442 442 441 1 
443 444 443 1 
444 445 443 1 
445 445 444 1 
446 447 446 1 
447 448 446 1 
448 448 447 1 
449 450 449 1 
450 451 449 1 
451 451 450 1 
452 452 454 1 
453 453 452 1 
454 453 454 1 
455 456 455 1 
456 457 455 1 
457 457 456 1 
458 459 458 1 
459 460 458 1 
460 460 459 1 
461 462 461 1 
462 463 461 1 
463 463 462 1 
464 464 465 1 
465 464 466 1 
466 466 465 1 
467 468 467 1 
468 469 467 1 
469 469 468 1 
470 471 470 1 
471 472 470 1 
472 472 471 1 
473 474 473 1 
474 475 473 1 
475 475 474 1 
476 477 476 1 
477 478 476 1 
478 478 477 1 
479 480 479 1 
480 481 479 1 
481 481 480 1 
482 483 482 1 
483 484 482 1 
484 484 483 1 
485 486 485 1 
486 487 485 1 
487 487 486 1 
488 489 488 1 
489 490 488 1 
490 490 489 1 
491 492 491 1 
492 493 491 1 
493 493 492 1 
494 495 494 1 
495 496 494 1 
496 496 495 1 
497 498 497 1 
498 499 497 1 
499 499 498 1 
500 501 500 1 
501 502 500 1 
502 502 501 1 
503 503 505 1 
504 504 503 1 
505 504 505 1 
506 507 506 1 
507 508 506 1 
508 508 507 1 
509 510 509 1 
510 511 509 1 
511 511 510 1 
512 512 513 1 
513 512 514 1 
514 514 513 1 
515 516 515 1 
516 517 515 1 
517 517 516 1 
518 519 518 1 
519 520 518 1 
520 520 519 1 
521 522 521 1 
522 523 521 1 
523 523 522 1 
524 525 524 1 
525 526 524 1 
526 526 525 1 
527 528 527 1 
528 529 527 1 
529 529 528 1 
530 531 530 1 
531 532 530 1 
532 532 531 1 
533 534 533 1 
534 535 533 1 
535 535 534 1 
536 537 536 1 
537 538 536 1 
538 538 537 1 
539 540 539 1 
540 541 539 1 
541 541 540 1 
542 543 542 1 
543 544 542 1 
544 544 543 1 
545 546 545 1 
546 547 545 1 
547 547 546 1 
548 549 548 1 
549 550 548 1 
550 550 549 1 
551 552 551 1 
552 553 551 1 
553 553 552 1 
554 554 555 1 
555 554 556 1 
556 556 555 1 
557 558 557 1 
558 559 557 1 
559 559 558 1 
560 561 560 1 
561 562 560 1 
562 562 561 1 
563 564 563 1 
564 565 563 1 
565 565 564 1 
566 567 566 1 
567 568 566 1 
568 568 567 1 
569 570 569 1 
570 571 569 1 
571 571 570 1 
572 573 572 1 
573 574 572 1 
574 574 573 1 
575 576 575 1 
576 577 575 1 
577 577 576 1 
578 579 578 1 
579 580 578 1 
580 580 579 1 
581 582 581 1 
582 583 581 1 
583 583 582 1 
584 585 584 1 
585 586 584 1 
586 586 585 1 
587 588 587 1 
588 589 587 1 
589 589 588 1 
590 591 590 1 
591 592 590 1 
592 592 591 1 
593 593 595 1 
594 594 593 1 
595 594 595 1 
596 597 596 1 
597 598 596 1 
598 598 597 1 
599 600 599 1 
600 601 599 1 
601 601 600 1 
602 603 602 1 
603 604 602 1 
604 604 603 1 
605 606 605 1 
606 607 605 1 
607 607 606 1 
608 609 608 1 
609 610 608 1 
610 610 609 1 
611 612 611 1 
612 613 611 1 
613 613 612 1 
614 614 615 1 
615 614 616 1 
616 616 615 1 
617 618 617 1 
618 619 617 1 
619 619 618 1 
620 621 620 1 
621 622 620 1 
622 622 621 1 
623 624 623 1 
624 625 623 1 
625 625 624 1 
626 627 626 1 
627 628 626 1 
628 628 627 1 
629 630 629 1 
630 631 629 1 
631 631 630 1 
632 632 634 1 
633 633 632 1 
634 633 634 1 
635 636 635 1 
636 637 635 1 
637 637 636 1 
638 639 638 1 
639 640 638 1 
640 640 639 1 
641 642 641 1 
642 643 641 1 
643 643 642 1 
644 645 644 1 
645 646 644 1 
646 646 645 1 
647 648 647 1 
648 649 647 1 
649 649 648 1 
650 650 651 1 
651 650 652 1 
652 652 651 1 
653 654 653 1 
654 655 653 1 
655 655 654 1 
656 657 656 1 
657 658 656 1 
658 658 657 1 
659 660 659 1 
660 661 659 1 
661 661 660 1 
662 663 662 1 
663 664 662 1 
664 664 663 1 
665 666 665 1 
666 667 665 1 
667 667 666 1 
668 669 668 1 
669 670 668 1 
670 670 669 1 
671 672 671 1 
672 673 671 1 
673 673 672 1 
674 675 674 1 
675 676 674 1 
676 676 675 1 
677 678 677 1 
678 679 677 1 
679 679 678 1 
680 681 680 1 
681 682 680 1 
682 682 681 1 
683 684 683 1 
684 685 683 1 
685 685 684 1 
686 687 686 1 
687 688 686 1 
688 688 687 1 
689 689 691 1 
690 690 689 1 
691 690 691 1 
692 693 692 1 
693 694 692 1 
694 694 693 1 
695 696 695 1 
696 697 695 1 
697 697 696 1 
698 698 699 1 
699 698 700 1 
700 700 699 1 
701 702 701 1 
702 703 701 1 
703 703 702 1 
704 705 704 1 
705 706 704 1 
706 706 705 1 
707 708 707 1 
708 709 707 1 
709 709 708 1 
710 710 712 1 
711 711 710 1 
712 711 712 1 
713 714 713 1 
714 715 713 1 
715 715 714 1 
716 717 716 1 
717 718 716 1 
718 718 717 1 
719 720 719 1 
720 721 719 1 
721 721 720 1 
722 723 722 1 
723 724 722 1 
724 724 723 1 
725 726 725 1 
726 727 725 1 
727 727 726 1 
728 729 728 1 
729 730 728 1 
730 730 729 1 
731 732 731 1 
732 733 731 1 
733 733 732 1 
734 734 736 1 
735 735 734 1 
736 735 736 1 
737 737 738 1 
738 737 739 1 
739 739 738 1 
740 741 740 1 
741 742 740 1 
742 742 741 1 
743 744 743 1 
744 745 743 1 
745 745 744 1 
746 747 746 1 
747 748 746 1 
748 748 747 1 
749 750 749 1 
750 751 749 1 
751 751 750 1 
752 753 752 1 
753 754 752 1 
754 754 753 1 
755 756 755 1 
756 757 755 1 
757 757 756 1 
758 759 758 1 
759 760 758 1 
760 760 759 1 
761 762 761 1 
762 763 761 1 
763 763 762 1 
764 765 764 1 
765 766 764 1 
766 766 765 1 
767 768 767 1 
768 769 767 1 
769 769 768 1 
770 770 772 1 
771 771 770 1 
772 771 772 1 
773 774 773 1 
774 775 773 1 
775 775 774 1 
776 777 776 1 
777 778 776 1 
778 778 777 1 
779 780 779 1 
780 781 779 1 
781 781 780 1 
782 783 782 1 
783 784 782 1 
784 784 783 1 
785 786 785 1 
786 787 785 1 
787 787 786 1 
788 789 788 1 
789 790 788 1 
790 790 789 1 
791 792 791 1 
792 793 791 1 
793 793 792 1 
794 795 794 1 
795 796 794 1 
796 796 795 1 
797 797 798 1 
798 797 799 1 
799 799 798 1 
800 801 800 1 
801 802 800 1 
802 802 801 1 
803 804 803 1 
804 805 803 1 
805 805 804 1 
806 807 806 1 
807 808 806 1 
808 808 807 1 
809 810 809 1 
810 811 809 1 
811 811 810 1 
812 813 812 1 
813 814 812 1 
814 814 813 1 
815 816 815 1 
816 817 815 1 
817 817 816 1 
818 819 818 1 
819 820 818 1 
820 820 819 1 
821 822 821 1 
822 823 821 1 
823 823 822 1 
824 825 824 1 
825 826 824 1 
826 826 825 1 
827 828 827 1 
828 829 827 1 
829 829 828 1 
830 830 831 1 
831 830 832 1 
832 832 831 1 
833 834 833 1 
834 835 833 1 
835 835 834 1 
836 837 836 1 
837 838 836 1 
838 838 837 1 
839 840 839 1 
840 841 839 1 
841 841 840 1 
842 843 842 1 
843 844 842 1 
844 844 843 1 
845 846 845 1 
846 847 845 1 
847 847 846 1 
848 849 848 1 
849 850 848 1 
850 850 849 1 
851 852 851 1 
852 853 851 1 
853 853 852 1 
854 855 854 1 
855 856 854 1 
856 856 855 1 
857 858 857 1 
858 859 857 1 
859 859 858 1 
860 861 860 1 
861 862 860 1 
862 862 861 1 
863 864 863 1 
864 865 863 1 
865 865 864 1 
866 867 866 1 
867 868 866 1 
868 868 867 1 
869 870 869 1 
870 871 869 1 
871 871 870 1 
872 873 872 1 
873 874 872 1 
874 874 873 1 
875 876 875 1 
876 877 875 1 
877 877 876 1 
878 878 880 1 
879 879 878 1 
880 879 880 1 
881 882 881 1 
882 883 881 1 
883 883 882 1 
884 885 884 1 
885 886 884 1 
886 886 885 1 
887 888 887 1 
888 889 887 1 
889 889 888 1 
890 891 890 1 
891 892 890 1 
892 892 891 1 
893 894 893 1 
894 895 893 1 
895 895 894 1 
896 897 896 1 
897 898 896 1 
898 898 897 1 
899 900 899 1 
900 901 899 1 
901 901 900 1 
902 903 902 1 
903 904 902 1 
904 904 903 1 
905 906 905 1 
906 907 905 1 
907 907 906 1 
908 909 908 1 
909 910 908 1 
910 910 909 1 
911 912 911 1 
912 913 911 1 
913 913 912 1 
914 915 914 1 
915 916 914 1 
916 916 915 1 
917 918 917 1 
918 919 917 1 
919 919 918 1 
920 921 920 1 
921 922 920 1 
922 922 921 1 
923 924 923 1 
924 925 923 1 
925 925 924 1 
926 927 926 1 
927 928 926 1 
928 928 927 1 
929 930 929 1 
930 931 929 1 
931 931 930 1 
932 933 932 1 
933 934 932 1 
934 934 933 1 
935 935 936 1 
936 935 937 1 
937 937 936 1 
938 939 938 1 
939 940 938 1 
940 940 939 1 
941 942 941 1 
942 943 941 1 
943 943 942 1 
944 945 944 1 
945 946 944 1 
946 946 945 1 
947 948 947 1 
948 949 947 1 
949 949 948 1 
950 951 950 1 
951 952 950 1 
952 952 951 1 
953 954 953 1 
954 955 953 1 
955 955 954 1 
956 957 956 1 
957 958 956 1 
958 958 957 1 
959 960 959 1 
960 961 959 1 
961 961 960 1 
962 963 962 1 
963 964 962 1 
964 964 963 1 
965 966 965 1 
966 967 965 1 
967 967 966 1 
968 968 970 1 
969 969 968 1 
970 969 970 1 
971 972 971 1 
972 973 971 1 
973 973 972 1 
974 975 974 1 
975 976 974 1 
976 976 975 1 
977 978 977 1 
978 979 977 1 
979 979 978 1 
980 981 980 1 
981 982 980 1 
982 982 981 1 
983 984 983 1 
984 985 983 1 
985 985 984 1 
986 987 986 1 
987 988 986 1 
988 988 987 1 
989 990 989 1 
990 991 989 1 
991 991 990 1 
992 993 992 1 
993 994 992 1 
994 994 993 1 
995 996 995 1 
996 997 995 1 
997 997 996 1 
998 999 998 1 
999 1000 998 1 
1000 1000 999 1 
1001 1002 1001 1 
1002 1003 1001 1 
1003 1003 1002 1 
1004 1005 1004 1 
1005 1006 1004 1 
1006 1006 1005 1 
1007 1007 1009 1 
1008 1008 1007 1 
1009 1008 1009 1 
1010 1011 1010 1 
1011 1012 1010 1 
1012 1012 1011 1 
1013 1014 1013 1 
1014 1015 1013 1 
1015 1015 1014 1 
1016 1017 1016 1 
1017 1018 1016 1 
1018 1018 1017 1 
1019 1020 1019 1 
1020 1021 1019 1 
1021 1021 1020 1 
1022 1023 1022 1 
1023 1024 1022 1 
1024 1024 1023 1 
1025 1026 1025 1 
1026 1027 1025 1 
1027 1027 1026 1 
1028 1029 1028 1 
1029 1030 1028 1 
1030 1030 1029 1 
1031 1032 1031 1 
1032 1033 1031 1 
1033 1033 1032 1 
1034 1034 1036 1 
1035 1035 1034 1 
1036 1035 1036 1 
1037 1038 1037 1 
1038 1039 1037 1 
1039 1039 1038 1 
1040 1041 1040 1 
1041 1042 1040 1 
1042 1042 1041 1 
1043 1043 1044 1 
1044 1043 1045 1 
1045 1045 1044 1 
1046 1047 1046 1 
1047 1048 1046 1 
1048 1048 1047 1 
1049 1050 1049 1 
1050 1051 1049 1 
1051 1051 1050 1 
1052 1053 1052 1 
1053 1054 1052 1 
1054 1054 1053 1 
1055 1056 1055 1 
1056 1057 1055 1 
1057 1057 1056 1 
1058 1059 1058 1 
1059 1060 1058 1 
1060 1060 1059 1 
1061 1062 1061 1 
1062 1063 1061 1 
1063 1063 1062 1 
1064 1065 1064 1 
1065 1066 1064 1 
1066 1066 1065 1 
1067 1068 1067 1 
1068 1069 1067 1 
1069 1069 1068 1 
1070 1071 1070 1 
1071 1072 1070 1 
1072 1072 1071 1 
1073 1074 1073 1 
1074 1075 1073 1 
1075 1075 1074 1 
1076 1077 1076 1 
1077 1078 1076 1 
1078 1078 1077 1 
1079 1080 1079 1 
1080 1081 1079 1 
1081 1081 1080 1 
1082 1082 1083 1 
1083 1082 1084 1 
1084 1084 1083 1 
1085 1086 1085 1 
1086 1087 1085 1 
1087 1087 1086 1 
1088 1089 1088 1 
1089 1090 1088 1 
1090 1090 1089 1 
1091 1092 1091 1 
1092 1093 1091 1 
1093 1093 1092 1 
1094 1095 1094 1 
1095 1096 1094 1 
1096 1096 1095 1 
1097 1098 1097 1 
1098 1099 1097 1 
1099 1099 1098 1 
1100 1101 1100 1 
1101 1102 1100 1 
1102 1102 1101 1 
1103 1104 1103 1 
1104 1105 1103 1 
1105 1105 1104 1 
1106 1107 1106 1 
1107 1108 1106 1 
1108 1108 1107 1 
1109 1109 1110 1 
1110 1109 1111 1 
1111 1111 1110 1 
1112 1113 1112 1 
1113 1114 1112 1 
1114 1114 1113 1 
1115 1116 1115 1 
1116 1117 1115 1 
1117 1117 1116 1 
1118 1119 1118 1 
1119 1120 1118 1 
1120 1120 1119 1 
1121 1122 1121 1 
1122 1123 1121 1 
1123 1123 1122 1 
1124 1125 1124 1 
1125 1126 1124 1 
1126 1126 1125 1 
1127 1128 1127 1 
1128 1129 1127 1 
1129 1129 1128 1 
1130 1131 1130 1 
1131 1132 1130 1 
1132 1132 1131 1 
1133 1134 1133 1 
1134 1135 1133 1 
1135 1135 1134 1 
1136 1137 1136 1 
1137 1138 1136 1 
1138 1138 1137 1 
1139 1140 1139 1 
1140 1141 1139 1 
1141 1141 1140 1 
1142 1143 1142 1 
1143 1144 1142 1 
1144 1144 1143 1 
1145 1146 1145 1 
1146 1147 1145 1 
1147 1147 1146 1 
1148 1149 1148 1 
1149 1150 1148 1 
1150 1150 1149 1 
1151 1152 1151 1 
1152 1153 1151 1 
1153 1153 1152 1 
1154 1155 1154 1 
1155 1156 1154 1 
1156 1156 1155 1 
1157 1158 1157 1 
1158 1159 1157 1 
1159 1159 1158 1 
1160 1161 1160 1 
1161 1162 1160 1 
1162 1162 1161 1 
1163 1164 1163 1 
1164 1165 1163 1 
1165 1165 1164 1 
1166 1167 1166 1 
1167 1168 1166 1 
1168 1168 1167 1 
1169 1170 1169 1 
1170 1171 1169 1 
1171 1171 1170 1 
1172 1173 1172 1 
1173 1174 1172 1 
1174 1174 1173 1 
1175 1176 1175 1 
1176 1177 1175 1 
1177 1177 1176 1 
1178 1179 1178 1 
1179 1180 1178 1 
1180 1180 1179 1 
1181 1182 1181 1 
1182 1183 1181 1 
1183 1183 1182 1 
1184 1185 1184 1 
1185 1186 1184 1 
1186 1186 1185 1 
1187 1188 1187 1 
1188 1189 1187 1 
1189 1189 1188 1 
1190 1191 1190 1 
1191 1192 1190 1 
1192 1192 1191 1 
1193 1194 1193 1 
1194 1195 1193 1 
1195 1195 1194 1 
1196 1197 1196 1 
1197 1198 1196 1 
1198 1198 1197 1 
1199 1200 1199 1 
1200 1201 1199 1 
1201 1201 1200 1 
1202 1203 1202 1 
1203 1204 1202 1 
1204 1204 1203 1 
1205 1206 1205 1 
1206 1207 1205 1 
1207 1207 1206 1 
1208 1208 1210 1 
1209 1209 1208 1 
1210 1209 1210 1 
1211 1212 1211 1 
1212 1213 1211 1 
1213 1213 1212 1 
1214 1214 1215 1 
1215 1214 1216 1 
1216 1216 1215 1 
1217 1218 1217 1 
1218 1219 1217 1 
1219 1219 1218 1 
1220 1221 1220 1 
1221 1222 1220 1 
1222 1222 1221 1 
1223 1224 1223 1 
1224 1225 1223 1 
1225 1225 1224 1 
1226 1227 1226 1 
1227 1228 1226 1 
1228 1228 1227 1 
1229 1230 1229 1 
1230 1231 1229 1 
1231 1231 1230 1 
1232 1233 1232 1 
1233 1234 1232 1 
1234 1234 1233 1 
1235 1236 1235 1 
1236 1237 1235 1 
1237 1237 1236 1 
1238 1239 1238 1 
1239 1240 1238 1 
1240 1240 1239 1 
1241 1242 1241 1 
1242 1243 1241 1 
1243 1243 1242 1 
1244 1245 1244 1 
1245 1246 1244 1 
1246 1246 1245 1 
1247 1248 1247 1 
1248 1249 1247 1 
1249 1249 1248 1 
1250 1251 1250 1 
1251 1252 1250 1 
1252 1252 1251 1 
1253 1254 1253 1 
1254 1255 1253 1 
1255 1255 1254 1 
1256 1257 1256 1 
1257 1258 1256 1 
1258 1258 1257 1 
1259 1259 1261 1 
1260 1260 1259 1 
1261 1260 1261 1 
1262 1263 1262 1 
1263 1264 1262 1 
1264 1264 1263 1 
1265 1266 1265 1 
1266 1267 1265 1 
1267 1267 1266 1 
1268 1268 1269 1 
1269 1268 1270 1 
1270 1270 1269 1 
1271 1272 1271 1 
1272 1273 1271 1 
1273 1273 1272 1 
1274 1275 1274 1 
1275 1276 1274 1 
1276 1276 1275 1 
1277 1277 1279 1 
1278 1278 1277 1 
1279 1278 1279 1 
1280 1281 1280 1 
1281 1282 1280 1 
1282 1282 1281 1 
1283 1284 1283 1 
1284 1285 1283 1 
1285 1285 1284 1 
1286 1287 1286 1 
1287 1288 1286 1 
1288 1288 1287 1 
1289 1290 1289 1 
1290 1291 1289 1 
1291 1291 1290 1 
1292 1293 1292 1 
1293 1294 1292 1 
1294 1294 1293 1 
1295 1296 1295 1 
1296 1297 1295 1 
1297 1297 1296 1 
1298 1299 1298 1 
1299 1300 1298 1 
1300 1300 1299 1 
1301 1302 1301 1 
1302 1303 1301 1 
1303 1303 1302 1 
1304 1305 1304 1 
1305 1306 1304 1 
1306 1306 1305 1 
1307 1308 1307 1 
1308 1309 1307 1 
1309 1309 1308 1 
1310 1311 1310 1 
1311 1312 1310 1 
1312 1312 1311 1 
1313 1314 1313 1 
1314 1315 1313 1 
1315 1315 1314 1 
1316 1317 1316 1 
1317 1318 1316 1 
1318 1318 1317 1 
1319 1320 1319 1 
1320 1321 1319 1 
1321 1321 1320 1 
1322 1323 1322 1 
1323 1324 1322 1 
1324 1324 1323 1 
1325 1326 1325 1 
1326 1327 1325 1 
1327 1327 1326 1 
1328 1329 1328 1 
1329 1330 1328 1 
1330 1330 1329 1 
1331 1332 1331 1 
1332 1333 1331 1 
1333 1333 1332 1 
1334 1335 1334 1 
1335 1336 1334 1 
1336 1336 1335 1 
1337 1337 1338 1 
1338 1337 1339 1 
1339 1339 1338 1 
1340 1341 1340 1 
1341 1342 1340 1 
1342 1342 1341 1 
1343 1344 1343 1 
1344 1345 1343 1 
1345 1345 1344 1 
1346 1347 1346 1 
1347 1348 1346 1 
1348 1348 1347 1 
1349 1350 1349 1 
1350 1351 1349 1 
1351 1351 1350 1 
1352 1353 1352 1 
1353 1354 1352 1 
1354 1354 1353 1 
1355 1356 1355 1 
1356 1357 1355 1 
1357 1357 1356 1 
1358 1359 1358 1 
1359 1360 1358 1 
1360 1360 1359 1 
1361 1362 1361 1 
1362 1363 1361 1 
1363 1363 1362 1 
1364 1364 1365 1 
1365 1364 1366 1 
1366 1366 1365 1 
1367 1368 1367 1 
1368 1369 1367 1 
1369 1369 1368 1 
1370 1371 1370 1 
1371 1372 1370 1 
1372 1372 1371 1 
1373 1374 1373 1 
1374 1375 1373 1 
1375 1375 1374 1 
1376 1377 1376 1 
1377 1378 1376 1 
1378 1378 1377 1 
1379 1379 1380 1 
1380 1379 1381 1 
1381 1381 1380 1 
1382 1383 1382 1 
1383 1384 1382 1 
1384 1384 1383 1 
1385 1386 1385 1 
1386 1387 1385 1 
1387 1387 1386 1 
1388 1389 1388 1 
1389 1390 1388 1 
1390 1390 1389 1 
1391 1392 1391 1 
1392 1393 1391 1 
1393 1393 1392 1 
1394 1395 1394 1 
1395 1396 1394 1 
1396 1396 1395 1 
1397 1398 1397 1 
1398 1399 1397 1 
1399 1399 1398 1 
1400 1401 1400 1 
1401 1402 1400 1 
1402 1402 1401 1 
1403 1404 1403 1 
1404 1405 1403 1 
1405 1405 1404 1 
1406 1407 1406 1 
1407 1408 1406 1 
1408 1408 1407 1 
1409 1410 1409 1 
1410 1411 1409 1 
1411 1411 1410 1 
1412 1412 1414 1 
1413 1413 1412 1 
1414 1413 1414 1 
1415 1416 1415 1 
1416 1417 1415 1 
1417 1417 1416 1 
1418 1418 1419 1 
1419 1418 1420 1 
1420 1420 1419 1 
1421 1422 1421 1 
1422 1423 1421 1 
1423 1423 1422 1 
1424 1425 1424 1 
1425 1426 1424 1 
1426 1426 1425 1 
1427 1428 1427 1 
1428 1429 1427 1 
1429 1429 1428 1 
1430 1431 1430 1 
1431 1432 1430 1 
1432 1432 1431 1 
1433 1434 1433 1 
1434 1435 1433 1 
1435 1435 1434 1 
1436 1436 1438 1 
1437 1437 1436 1 
1438 1437 1438 1 
1439 1440 1439 1 
1440 1441 1439 1 
1441 1441 1440 1 
1442 1443 1442 1 
1443 1444 1442 1 
1444 1444 1443 1 
1445 1446 1445 1 
1446 1447 1445 1 
1447 1447 1446 1 
1448 1449 1448 1 
1449 1450 1448 1 
1450 1450 1449 1 
1451 1452 1451 1 
1452 1453 1451 1 
1453 1453 1452 1 
1454 1455 1454 1 
1455 1456 1454 1 
1456 1456 1455 1 
1457 1457 1458 1 
1458 1457 1459 1 
1459 1459 1458 1 
1460 1461 1460 1 
1461 1462 1460 1 
1462 1462 1461 1 
1463 1464 1463 1 
1464 1465 1463 1 
1465 1465 1464 1 
1466 1467 1466 1 
1467 1468 1466 1 
1468 1468 1467 1 
1469 1470 1469 1 
1470 1471 1469 1 
1471 1471 1470 1 
1472 1473 1472 1 
1473 1474 1472 1 
1474 1474 1473 1 
1475 1475 1477 1 
1476 1476 1475 1 
1477 1476 1477 1 
1478 1478 1479 1 
1479 1478 1480 1 
1480 1480 1479 1 
1481 1482 1481 1 
1482 1483 1481 1 
1483 1483 1482 1 
1484 1485 1484 1 
1485 1486 1484 1 
1486 1486 1485 1 
1487 1488 1487 1 
1488 1489 1487 1 
1489 1489 1488 1 
1490 1491 1490 1 
1491 1492 1490 1 
1492 1492 1491 1 
1493 1493 1495 1 
1494 1494 1493 1 
1495 1494 1495 1 
1496 1497 1496 1 
1497 1498 1496 1 
1498 1498 1497 1 
1499 1500 1499 1 
1500 1501 1499 1 
1501 1501 1500 1 
1502 1503 1502 1 
1503 1504 1502 1 
1504 1504 1503 1 
1505 1506 1505 1 
1506 1507 1505 1 
1507 1507 1506 1 
1508 1509 1508 1 
1509 1510 1508 1 
1510 1510 1509 1 
1511 1512 1511 1 
1512 1513 1511 1 
1513 1513 1512 1 
1514 1515 1514 1 
1515 1516 1514 1 
1516 1516 1515 1 
1517 1518 1517 1 
1518 1519 1517 1 
1519 1519 1518 1 
1520 1521 1520 1 
1521 1522 1520 1 
1522 1522 1521 1 
1523 1524 1523 1 
1524 1525 1523 1 
1525 1525 1524 1 
1526 1527 1526 1 
1527 1528 1526 1 
1528 1528 1527 1 
1529 1529 1531 1 
1530 1530 1529 1 
1531 1530 1531 1 
1532 1533 1532 1 
1533 1534 1532 1 
1534 1534 1533 1 
1535 1536 1535 1 
1536 1537 1535 1 
1537 1537 1536 1 
1538 1539 1538 1 
1539 1540 1538 1 
1540 1540 1539 1 
1541 1542 1541 1 
1542 1543 1541 1 
1543 1543 1542 1 
1544 1545 1544 1 
1545 1546 1544 1 
1546 1546 1545 1 
1547 1548 1547 1 
1548 1549 1547 1 
1549 1549 1548 1 
1550 1551 1550 1 
1551 1552 1550 1 
1552 1552 1551 1 
1553 1554 1553 1 
1554 1555 1553 1 
1555 1555 1554 1 
1556 1557 1556 1 
1557 1558 1556 1 
1558 1558 1557 1 
1559 1560 1559 1 
1560 1561 1559 1 
1561 1561 1560 1 
1562 1563 1562 1 
1563 1564 1562 1 
1564 1564 1563 1 
1565 1566 1565 1 
1566 1567 1565 1 
1567 1567 1566 1 
1568 1569 1568 1 
1569 1570 1568 1 
1570 1570 1569 1 
1571 1572 1571 1 
1572 1573 1571 1 
1573 1573 1572 1 
1574 1575 1574 1 
1575 1576 1574 1 
1576 1576 1575 1 
1577 1578 1577 1 
1578 1579 1577 1 
1579 1579 1578 1 
1580 1581 1580 1 
1581 1582 1580 1 
1582 1582 1581 1 
1583 1584 1583 1 
1584 1585 1583 1 
1585 1585 1584 1 
1586 1587 1586 1 
1587 1588 1586 1 
1588 1588 1587 1 
1589 1590 1589 1 
1590 1591 1589 1 
1591 1591 1590 1 
1592 1593 1592 1 
1593 1594 1592 1 
1594 1594 1593 1 
1595 1595 1597 1 
1596 1596 1595 1 
1597 1596 1597 1 
1598 1599 1598 1 
1599 1600 1598 1 
1600 1600 1599 1 
1601 1602 1601 1 
1602 1603 1601 1 
1603 1603 1602 1 
1604 1605 1604 1 
1605 1606 1604 1 
1606 1606 1605 1 
1607 1608 1607 1 
1608 1609 1607 1 
1609 1609 1608 1 
1610 1611 1610 1 
1611 1612 1610 1 
1612 1612 1611 1 
1613 1614 1613 1 
1614 1615 1613 1 
1615 1615 1614 1 
1616 1617 1616 1 
1617 1618 1616 1 
1618 1618 1617 1 
1619 1620 1619 1 
1620 1621 1619 1 
1621 1621 1620 1 
1622 1623 1622 1 
1623 1624 1622 1 
1624 1624 1623 1 
1625 1626 1625 1 
1626 1627 1625 1 
1627 1627 1626 1 
1628 1629 1628 1 
1629 1630 1628 1 
1630 1630 1629 1 
1631 1632 1631 1 
1632 1633 1631 1 
1633 1633 1632 1 
1634 1635 1634 1 
1635 1636 1634 1 
1636 1636 1635 1 
1637 1638 1637 1 
1638 1639 1637 1 
1639 1639 1638 1 
1640 1641 1640 1 
1641 1642 1640 1 
1642 1642 1641 1 
1643 1644 1643 1 
1644 1645 1643 1 
1645 1645 1644 1 
1646 1647 1646 1 
1647 1648 1646 1 
1648 1648 1647 1 
1649 1650 1649 1 
1650 1651 1649 1 
1651 1651 1650 1 
1652 1652 1654 1 
1653 1653 1652 1 
1654 1653 1654 1 
1655 1656 1655 1 
1656 1657 1655 1 
1657 1657 1656 1 
1658 1659 1658 1 
1659 1660 1658 1 
1660 1660 1659 1 
1661 1662 1661 1 
1662 1663 1661 1 
1663 1663 1662 1 
1664 1665 1664 1 
1665 1666 1664 1 
1666 1666 1665 1 
1667 1668 1667 1 
1668 1669 1667 1 
1669 1669 1668 1 
1670 1671 1670 1 
1671 1672 1670 1 
1672 1672 1671 1 
1673 1674 1673 1 
1674 1675 1673 1 
1675 1675 1674 1 
1676 1677 1676 1 
1677 1678 1676 1 
1678 1678 1677 1 
1679 1680 1679 1 
1680 1681 1679 1 
1681 1681 1680 1 
1682 1682 1684 1 
1683 1683 1682 1 
1684 1683 1684 1 
1685 1686 1685 1 
1686 1687 1685 1 
1687 1687 1686 1 
1688 1689 1688 1 
1689 1690 1688 1 
1690 1690 1689 1 
1691 1692 1691 1 
1692 1693 1691 1 
1693 1693 1692 1 
1694 1695 1694 1 
1695 1696 1694 1 
1696 1696 1695 1 
1697 1698 1697 1 
1698 1699 1697 1 
1699 1699 1698 1 
1700 1701 1700 1 
1701 1702 1700 1 
1702 1702 1701 1 
1703 1704 1703 1 
1704 1705 1703 1 
1705 1705 1704 1 
1706 1707 1706 1 
1707 1708 1706 1 
1708 1708 1707 1 
1709 1710 1709 1 
1710 1711 1709 1 
1711 1711 1710 1 
1712 1712 1714 1 
1713 1712 1713 1 
1714 1714 1713 1 
1715 1716 1715 1 
1716 1717 1715 1 
1717 1717 1716 1 
1718 1719 1718 1 
1719 1720 1718 1 
1720 1720 1719 1 
1721 1722 1721 1 
1722 1723 1721 1 
1723 1723 1722 1 
1724 1725 1724 1 
1725 1726 1724 1 
1726 1726 1725 1 
1727 1728 1727 1 
1728 1729 1727 1 
1729 1729 1728 1 
1730 1731 1730 1 
1731 1732 1730 1 
1732 1732 1731 1 
1733 1734 1733 1 
1734 1735 1733 1 
1735 1735 1734 1 
1736 1737 1736 1 
1737 1738 1736 1 
1738 1738 1737 1 
1739 1740 1739 1 
1740 1741 1739 1 
1741 1741 1740 1 
1742 1743 1742 1 
1743 1744 1742 1 
1744 1744 1743 1 
1745 1746 1745 1 
1746 1747 1745 1 
1747 1747 1746 1 
1748 1749 1748 1 
1749 1750 1748 1 
1750 1750 1749 1 
1751 1752 1751 1 
1752 1753 1751 1 
1753 1753 1752 1 
1754 1755 1754 1 
1755 1756 1754 1 
1756 1756 1755 1 
1757 1758 1757 1 
1758 1759 1757 1 
1759 1759 1758 1 
1760 1761 1760 1 
1761 1762 1760 1 
1762 1762 1761 1 
1763 1764 1763 1 
1764 1765 1763 1 
1765 1765 1764 1 
1766 1766 1768 1 
1767 1767 1766 1 
1768 1767 1768 1 
1769 1770 1769 1 
1770 1771 1769 1 
1771 1771 1770 1 
1772 1772 1774 1 
1773 1772 1773 1 
1774 1774 1773 1 
1775 1776 1775 1 
1776 1777 1775 1 
1777 1777 1776 1 
1778 1779 1778 1 
1779 1780 1778 1 
1780 1780 1779 1 
1781 1782 1781 1 
1782 1783 1781 1 
1783 1783 1782 1 
1784 1785 1784 1 
1785 1786 1784 1 
1786 1786 1785 1 
1787 1787 1788 1 
1788 1787 1789 1 
1789 1789 1788 1 
1790 1791 1790 1 
1791 1792 1790 1 
1792 1792 1791 1 
1793 1794 1793 1 
1794 1795 1793 1 
1795 1795 1794 1 
1796 1797 1796 1 
1797 1798 1796 1 
1798 1798 1797 1 
1799 1799 1801 1 
1800 1800 1799 1 
1801 1800 1801 1 
1802 1803 1802 1 
1803 1804 1802 1 
1804 1804 1803 1 
1805 1806 1805 1 
1806 1807 1805 1 
1807 1807 1806 1 
1808 1809 1808 1 
1809 1810 1808 1 
1810 1810 1809 1 
1811 1812 1811 1 
1812 1813 1811 1 
1813 1813 1812 1 
1814 1815 1814 1 
1815 1816 1814 1 
1816 1816 1815 1 
1817 1818 1817 1 
1818 1819 1817 1 
1819 1819 1818 1 
1820 1821 1820 1 
1821 1822 1820 1 
1822 1822 1821 1 
1823 1824 1823 1 
1824 1825 1823 1 
1825 1825 1824 1 
1826 1827 1826 1 
1827 1828 1826 1 
1828 1828 1827 1 
1829 1830 1829 1 
1830 1831 1829 1 
1831 1831 1830 1 
@<TRIPOS>SUBSTRUCTURE
1 COR_1 1 RESIDUE 1 AA COR 1
2 COR_2 13 RESIDUE 1 AB COR 1
3 WAT_3 26 RESIDUE 1 WAT_1 WAT 1
4 WAT_4 29 RESIDUE 1 WAT_5 WAT 1
5 WAT_5 32 RESIDUE 1 WAT_7 WAT 1
6 WAT_6 35 RESIDUE 1 WAT_8 WAT 1
7 WAT_7 38 RESIDUE 1 WAT_13 WAT 1
8 WAT_8 41 RESIDUE 1 WAT_14 WAT 1
9 WAT_9 44 RESIDUE 1 WAT_15 WAT 1
10 WAT_10 47 RESIDUE 1 WAT_16 WAT 1
11 WAT_11 50 RESIDUE 1 WAT_18 WAT 1
12 WAT_12 53 RESIDUE 1 WAT_19 WAT 1
13 WAT_13 56 RESIDUE 1 WAT_20 WAT 1
14 WAT_14 59 RESIDUE 1 WAT_21 WAT 1
15 WAT_15 62 RESIDUE 1 WAT_27 WAT 1
16 WAT_16 65 RESIDUE 1 WAT_28 WAT 1
17 WAT_17 68 RESIDUE 1 WAT_32 WAT 1
18 WAT_18 71 RESIDUE 1 WAT_45 WAT 1
19 WAT_19 74 RESIDUE 1 WAT_46 WAT 1
20 WAT_20 77 RESIDUE 1 WAT_47 WAT 1
21 WAT_21 80 RESIDUE 1 WAT_48 WAT 1
22 WAT_22 83 RESIDUE 1 WAT_50 WAT 1
23 WAT_23 86 RESIDUE 1 WAT_51 WAT 1
24 WAT_24 89 RESIDUE 1 WAT_55 WAT 1
25 WAT_25 92 RESIDUE 1 WAT_56 WAT 1
26 WAT_26 95 RESIDUE 1 WAT_57 WAT 1
27 WAT_27 98 RESIDUE 1 WAT_58 WAT 1
28 WAT_28 101 RESIDUE 1 WAT_59 WAT 1
29 WAT_29 104 RESIDUE 1 WAT_60 WAT 1
30 WAT_30 107 RESIDUE 1 WAT_61 WAT 1
31 WAT_31 110 RESIDUE 1 WAT_62 WAT 1
32 WAT_32 113 RESIDUE 1 WAT_65 WAT 1
33 WAT_33 116 RESIDUE 1 WAT_68 WAT 1
34 WAT_34 119 RESIDUE 1 WAT_69 WAT 1
35 WAT_35 122 RESIDUE 1 WAT_70 WAT 1
36 WAT_36 125 RESIDUE 1 WAT_71 WAT 1
37 WAT_37 128 RESIDUE 1 WAT_73 WAT 1
38 WAT_38 131 RESIDUE 1 WAT_77 WAT 1
39 WAT_39 134 RESIDUE 1 WAT_78 WAT 1
40 WAT_40 137 RESIDUE 1 WAT_79 WAT 1
41 WAT_41 140 RESIDUE 1 WAT_85 WAT 1
42 WAT_42 143 RESIDUE 1 WAT_92 WAT 1
43 WAT_43 146 RESIDUE 1 WAT_94 WAT 1
44 WAT_44 149 RESIDUE 1 WAT_95 WAT 1
45 WAT_45 152 RESIDUE 1 WAT_96 WAT 1
46 WAT_46 155 RESIDUE 1 WAT_97 WAT 1
47 WAT_47 158 RESIDUE 1 WAT_98 WAT 1
48 WAT_48 161 RESIDUE 1 WAT_99 WAT 1
49 WAT_49 164 RESIDUE 1 WAT_100 WAT 1
50 WAT_50 167 RESIDUE 1 WAT_101 WAT 1
51 WAT_51 170 RESIDUE 1 WAT_105 WAT 1
52 WAT_52 173 RESIDUE 1 WAT_106 WAT 1
53 WAT_53 176 RESIDUE 1 WAT_109 WAT 1
54 WAT_54 179 RESIDUE 1 WAT_110 WAT 1
55 WAT_55 182 RESIDUE 1 WAT_121 WAT 1
56 WAT_56 185 RESIDUE 1 WAT_125 WAT 1
57 WAT_57 188 RESIDUE 1 WAT_130 WAT 1
58 WAT_58 191 RESIDUE 1 WAT_132 WAT 1
59 WAT_59 194 RESIDUE 1 WAT_133 WAT 1
60 WAT_60 197 RESIDUE 1 WAT_139 WAT 1
61 WAT_61 200 RESIDUE 1 WAT_140 WAT 1
62 WAT_62 203 RESIDUE 1 WAT_144 WAT 1
63 WAT_63 206 RESIDUE 1 WAT_148 WAT 1
64 WAT_64 209 RESIDUE 1 WAT_150 WAT 1
65 WAT_65 212 RESIDUE 1 WAT_152 WAT 1
66 WAT_66 215 RESIDUE 1 WAT_154 WAT 1
67 WAT_67 218 RESIDUE 1 WAT_155 WAT 1
68 WAT_68 221 RESIDUE 1 WAT_156 WAT 1
69 WAT_69 224 RESIDUE 1 WAT_160 WAT 1
70 WAT_70 227 RESIDUE 1 WAT_161 WAT 1
71 WAT_71 230 RESIDUE 1 WAT_162 WAT 1
72 WAT_72 233 RESIDUE 1 WAT_165 WAT 1
73 WAT_73 236 RESIDUE 1 WAT_166 WAT 1
74 WAT_74 239 RESIDUE 1 WAT_169 WAT 1
75 WAT_75 242 RESIDUE 1 WAT_172 WAT 1
76 WAT_76 245 RESIDUE 1 WAT_174 WAT 1
77 WAT_77 248 RESIDUE 1 WAT_175 WAT 1
78 WAT_78 251 RESIDUE 1 WAT_186 WAT 1
79 WAT_79 254 RESIDUE 1 WAT_189 WAT 1
80 WAT_80 257 RESIDUE 1 WAT_193 WAT 1
81 WAT_81 260 RESIDUE 1 WAT_203 WAT 1
82 WAT_82 263 RESIDUE 1 WAT_204 WAT 1
83 WAT_83 266 RESIDUE 1 WAT_215 WAT 1
84 WAT_84 269 RESIDUE 1 WAT_223 WAT 1
85 WAT_85 272 RESIDUE 1 WAT_230 WAT 1
86 WAT_86 275 RESIDUE 1 WAT_234 WAT 1
87 WAT_87 278 RESIDUE 1 WAT_235 WAT 1
88 WAT_88 281 RESIDUE 1 WAT_236 WAT 1
89 WAT_89 284 RESIDUE 1 WAT_237 WAT 1
90 WAT_90 287 RESIDUE 1 WAT_240 WAT 1
91 WAT_91 290 RESIDUE 1 WAT_243 WAT 1
92 WAT_92 293 RESIDUE 1 WAT_244 WAT 1
93 WAT_93 296 RESIDUE 1 WAT_247 WAT 1
94 WAT_94 299 RESIDUE 1 WAT_248 WAT 1
95 WAT_95 302 RESIDUE 1 WAT_251 WAT 1
96 WAT_96 305 RESIDUE 1 WAT_254 WAT 1
97 WAT_97 308 RESIDUE 1 WAT_260 WAT 1
98 WAT_98 311 RESIDUE 1 WAT_262 WAT 1
99 WAT_99 314 RESIDUE 1 WAT_263 WAT 1
100 WAT_100 317 RESIDUE 1 WAT_264 WAT 1
101 WAT_101 320 RESIDUE 1 WAT_266 WAT 1
102 WAT_102 323 RESIDUE 1 WAT_267 WAT 1
103 WAT_103 326 RESIDUE 1 WAT_272 WAT 1
104 WAT_104 329 RESIDUE 1 WAT_275 WAT 1
105 WAT_105 332 RESIDUE 1 WAT_278 WAT 1
106 WAT_106 335 RESIDUE 1 WAT_280 WAT 1
107 WAT_107 338 RESIDUE 1 WAT_281 WAT 1
108 WAT_108 341 RESIDUE 1 WAT_284 WAT 1
109 WAT_109 344 RESIDUE 1 WAT_285 WAT 1
110 WAT_110 347 RESIDUE 1 WAT_288 WAT 1
111 WAT_111 350 RESIDUE 1 WAT_289 WAT 1
112 WAT_112 353 RESIDUE 1 WAT_293 WAT 1
113 WAT_113 356 RESIDUE 1 WAT_294 WAT 1
114 WAT_114 359 RESIDUE 1 WAT_295 WAT 1
115 WAT_115 362 RESIDUE 1 WAT_297 WAT 1
116 WAT_116 365 RESIDUE 1 WAT_299 WAT 1
117 WAT_117 368 RESIDUE 1 WAT_301 WAT 1
118 WAT_118 371 RESIDUE 1 WAT_310 WAT 1
119 WAT_119 374 RESIDUE 1 WAT_311 WAT 1
120 WAT_120 377 RESIDUE 1 WAT_312 WAT 1
121 WAT_121 380 RESIDUE 1 WAT_313 WAT 1
122 WAT_122 383 RESIDUE 1 WAT_314 WAT 1
123 WAT_123 386 RESIDUE 1 WAT_315 WAT 1
124 WAT_124 389 RESIDUE 1 WAT_316 WAT 1
125 WAT_125 392 RESIDUE 1 WAT_321 WAT 1
126 WAT_126 395 RESIDUE 1 WAT_322 WAT 1
127 WAT_127 398 RESIDUE 1 WAT_326 WAT 1
128 WAT_128 401 RESIDUE 1 WAT_334 WAT 1
129 WAT_129 404 RESIDUE 1 WAT_337 WAT 1
130 WAT_130 407 RESIDUE 1 WAT_341 WAT 1
131 WAT_131 410 RESIDUE 1 WAT_346 WAT 1
132 WAT_132 413 RESIDUE 1 WAT_349 WAT 1
133 WAT_133 416 RESIDUE 1 WAT_355 WAT 1
134 WAT_134 419 RESIDUE 1 WAT_360 WAT 1
135 WAT_135 422 RESIDUE 1 WAT_362 WAT 1
136 WAT_136 425 RESIDUE 1 WAT_364 WAT 1
137 WAT_137 428 RESIDUE 1 WAT_367 WAT 1
138 WAT_138 431 RESIDUE 1 WAT_368 WAT 1
139 WAT_139 434 RESIDUE 1 WAT_372 WAT 1
140 WAT_140 437 RESIDUE 1 WAT_376 WAT 1
141 WAT_141 440 RESIDUE 1 WAT_377 WAT 1
142 WAT_142 443 RESIDUE 1 WAT_378 WAT 1
143 WAT_143 446 RESIDUE 1 WAT_379 WAT 1
144 WAT_144 449 RESIDUE 1 WAT_384 WAT 1
145 WAT_145 452 RESIDUE 1 WAT_388 WAT 1
146 WAT_146 455 RESIDUE 1 WAT_390 WAT 1
147 WAT_147 458 RESIDUE 1 WAT_391 WAT 1
148 WAT_148 461 RESIDUE 1 WAT_392 WAT 1
149 WAT_149 464 RESIDUE 1 WAT_394 WAT 1
150 WAT_150 467 RESIDUE 1 WAT_402 WAT 1
151 WAT_151 470 RESIDUE 1 WAT_405 WAT 1
152 WAT_152 473 RESIDUE 1 WAT_409 WAT 1
153 WAT_153 476 RESIDUE 1 WAT_413 WAT 1
154 WAT_154 479 RESIDUE 1 WAT_416 WAT 1
155 WAT_155 482 RESIDUE 1 WAT_417 WAT 1
156 WAT_156 485 RESIDUE 1 WAT_420 WAT 1
157 WAT_157 488 RESIDUE 1 WAT_421 WAT 1
158 WAT_158 491 RESIDUE 1 WAT_425 WAT 1
159 WAT_159 494 RESIDUE 1 WAT_431 WAT 1
160 WAT_160 497 RESIDUE 1 WAT_437 WAT 1
161 WAT_161 500 RESIDUE 1 WAT_438 WAT 1
162 WAT_162 503 RESIDUE 1 WAT_439 WAT 1
163 WAT_163 506 RESIDUE 1 WAT_440 WAT 1
164 WAT_164 509 RESIDUE 1 WAT_444 WAT 1
165 WAT_165 512 RESIDUE 1 WAT_445 WAT 1
166 WAT_166 515 RESIDUE 1 WAT_447 WAT 1
167 WAT_167 518 RESIDUE 1 WAT_448 WAT 1
168 WAT_168 521 RESIDUE 1 WAT_450 WAT 1
169 WAT_169 524 RESIDUE 1 WAT_451 WAT 1
170 WAT_170 527 RESIDUE 1 WAT_457 WAT 1
171 WAT_171 530 RESIDUE 1 WAT_459 WAT 1
172 WAT_172 533 RESIDUE 1 WAT_464 WAT 1
173 WAT_173 536 RESIDUE 1 WAT_466 WAT 1
174 WAT_174 539 RESIDUE 1 WAT_468 WAT 1
175 WAT_175 542 RESIDUE 1 WAT_471 WAT 1
176 WAT_176 545 RESIDUE 1 WAT_475 WAT 1
177 WAT_177 548 RESIDUE 1 WAT_477 WAT 1
178 WAT_178 551 RESIDUE 1 WAT_478 WAT 1
179 WAT_179 554 RESIDUE 1 WAT_479 WAT 1
180 WAT_180 557 RESIDUE 1 WAT_480 WAT 1
181 WAT_181 560 RESIDUE 1 WAT_481 WAT 1
182 WAT_182 563 RESIDUE 1 WAT_482 WAT 1
183 WAT_183 566 RESIDUE 1 WAT_483 WAT 1
184 WAT_184 569 RESIDUE 1 WAT_489 WAT 1
185 WAT_185 572 RESIDUE 1 WAT_491 WAT 1
186 WAT_186 575 RESIDUE 1 WAT_492 WAT 1
187 WAT_187 578 RESIDUE 1 WAT_494 WAT 1
188 WAT_188 581 RESIDUE 1 WAT_495 WAT 1
189 WAT_189 584 RESIDUE 1 WAT_500 WAT 1
190 WAT_190 587 RESIDUE 1 WAT_501 WAT 1
191 WAT_191 590 RESIDUE 1 WAT_502 WAT 1
192 WAT_192 593 RESIDUE 1 WAT_507 WAT 1
193 WAT_193 596 RESIDUE 1 WAT_510 WAT 1
194 WAT_194 599 RESIDUE 1 WAT_514 WAT 1
195 WAT_195 602 RESIDUE 1 WAT_519 WAT 1
196 WAT_196 605 RESIDUE 1 WAT_526 WAT 1
197 WAT_197 608 RESIDUE 1 WAT_527 WAT 1
198 WAT_198 611 RESIDUE 1 WAT_528 WAT 1
199 WAT_199 614 RESIDUE 1 WAT_530 WAT 1
200 WAT_200 617 RESIDUE 1 WAT_531 WAT 1
201 WAT_201 620 RESIDUE 1 WAT_533 WAT 1
202 WAT_202 623 RESIDUE 1 WAT_535 WAT 1
203 WAT_203 626 RESIDUE 1 WAT_538 WAT 1
204 WAT_204 629 RESIDUE 1 WAT_539 WAT 1
205 WAT_205 632 RESIDUE 1 WAT_541 WAT 1
206 WAT_206 635 RESIDUE 1 WAT_545 WAT 1
207 WAT_207 638 RESIDUE 1 WAT_549 WAT 1
208 WAT_208 641 RESIDUE 1 WAT_553 WAT 1
209 WAT_209 644 RESIDUE 1 WAT_554 WAT 1
210 WAT_210 647 RESIDUE 1 WAT_557 WAT 1
211 WAT_211 650 RESIDUE 1 WAT_564 WAT 1
212 WAT_212 653 RESIDUE 1 WAT_566 WAT 1
213 WAT_213 656 RESIDUE 1 WAT_570 WAT 1
214 WAT_214 659 RESIDUE 1 WAT_571 WAT 1
215 WAT_215 662 RESIDUE 1 WAT_575 WAT 1
216 WAT_216 665 RESIDUE 1 WAT_577 WAT 1
217 WAT_217 668 RESIDUE 1 WAT_580 WAT 1
218 WAT_218 671 RESIDUE 1 WAT_582 WAT 1
219 WAT_219 674 RESIDUE 1 WAT_586 WAT 1
220 WAT_220 677 RESIDUE 1 WAT_587 WAT 1
221 WAT_221 680 RESIDUE 1 WAT_588 WAT 1
222 WAT_222 683 RESIDUE 1 WAT_589 WAT 1
223 WAT_223 686 RESIDUE 1 WAT_590 WAT 1
224 WAT_224 689 RESIDUE 1 WAT_592 WAT 1
225 WAT_225 692 RESIDUE 1 WAT_594 WAT 1
226 WAT_226 695 RESIDUE 1 WAT_597 WAT 1
227 WAT_227 698 RESIDUE 1 WAT_598 WAT 1
228 WAT_228 701 RESIDUE 1 WAT_601 WAT 1
229 WAT_229 704 RESIDUE 1 WAT_604 WAT 1
230 WAT_230 707 RESIDUE 1 WAT_606 WAT 1
231 WAT_231 710 RESIDUE 1 WAT_609 WAT 1
232 WAT_232 713 RESIDUE 1 WAT_619 WAT 1
233 WAT_233 716 RESIDUE 1 WAT_621 WAT 1
234 WAT_234 719 RESIDUE 1 WAT_631 WAT 1
235 WAT_235 722 RESIDUE 1 WAT_635 WAT 1
236 WAT_236 725 RESIDUE 1 WAT_636 WAT 1
237 WAT_237 728 RESIDUE 1 WAT_654 WAT 1
238 WAT_238 731 RESIDUE 1 WAT_655 WAT 1
239 WAT_239 734 RESIDUE 1 WAT_660 WAT 1
240 WAT_240 737 RESIDUE 1 WAT_666 WAT 1
241 WAT_241 740 RESIDUE 1 WAT_667 WAT 1
242 WAT_242 743 RESIDUE 1 WAT_672 WAT 1
243 WAT_243 746 RESIDUE 1 WAT_673 WAT 1
244 WAT_244 749 RESIDUE 1 WAT_674 WAT 1
245 WAT_245 752 RESIDUE 1 WAT_675 WAT 1
246 WAT_246 755 RESIDUE 1 WAT_679 WAT 1
247 WAT_247 758 RESIDUE 1 WAT_680 WAT 1
248 WAT_248 761 RESIDUE 1 WAT_681 WAT 1
249 WAT_249 764 RESIDUE 1 WAT_687 WAT 1
250 WAT_250 767 RESIDUE 1 WAT_692 WAT 1
251 WAT_251 770 RESIDUE 1 WAT_694 WAT 1
252 WAT_252 773 RESIDUE 1 WAT_695 WAT 1
253 WAT_253 776 RESIDUE 1 WAT_696 WAT 1
254 WAT_254 779 RESIDUE 1 WAT_698 WAT 1
255 WAT_255 782 RESIDUE 1 WAT_699 WAT 1
256 WAT_256 785 RESIDUE 1 WAT_707 WAT 1
257 WAT_257 788 RESIDUE 1 WAT_710 WAT 1
258 WAT_258 791 RESIDUE 1 WAT_712 WAT 1
259 WAT_259 794 RESIDUE 1 WAT_716 WAT 1
260 WAT_260 797 RESIDUE 1 WAT_717 WAT 1
261 WAT_261 800 RESIDUE 1 WAT_723 WAT 1
262 WAT_262 803 RESIDUE 1 WAT_726 WAT 1
263 WAT_263 806 RESIDUE 1 WAT_729 WAT 1
264 WAT_264 809 RESIDUE 1 WAT_731 WAT 1
265 WAT_265 812 RESIDUE 1 WAT_735 WAT 1
266 WAT_266 815 RESIDUE 1 WAT_742 WAT 1
267 WAT_267 818 RESIDUE 1 WAT_743 WAT 1
268 WAT_268 821 RESIDUE 1 WAT_744 WAT 1
269 WAT_269 824 RESIDUE 1 WAT_746 WAT 1
270 WAT_270 827 RESIDUE 1 WAT_747 WAT 1
271 WAT_271 830 RESIDUE 1 WAT_751 WAT 1
272 WAT_272 833 RESIDUE 1 WAT_754 WAT 1
273 WAT_273 836 RESIDUE 1 WAT_755 WAT 1
274 WAT_274 839 RESIDUE 1 WAT_760 WAT 1
275 WAT_275 842 RESIDUE 1 WAT_761 WAT 1
276 WAT_276 845 RESIDUE 1 WAT_765 WAT 1
277 WAT_277 848 RESIDUE 1 WAT_766 WAT 1
278 WAT_278 851 RESIDUE 1 WAT_769 WAT 1
279 WAT_279 854 RESIDUE 1 WAT_770 WAT 1
280 WAT_280 857 RESIDUE 1 WAT_772 WAT 1
281 WAT_281 860 RESIDUE 1 WAT_773 WAT 1
282 WAT_282 863 RESIDUE 1 WAT_782 WAT 1
283 WAT_283 866 RESIDUE 1 WAT_784 WAT 1
284 WAT_284 869 RESIDUE 1 WAT_786 WAT 1
285 WAT_285 872 RESIDUE 1 WAT_787 WAT 1
286 WAT_286 875 RESIDUE 1 WAT_793 WAT 1
287 WAT_287 878 RESIDUE 1 WAT_796 WAT 1
288 WAT_288 881 RESIDUE 1 WAT_797 WAT 1
289 WAT_289 884 RESIDUE 1 WAT_799 WAT 1
290 WAT_290 887 RESIDUE 1 WAT_804 WAT 1
291 WAT_291 890 RESIDUE 1 WAT_805 WAT 1
292 WAT_292 893 RESIDUE 1 WAT_807 WAT 1
293 WAT_293 896 RESIDUE 1 WAT_808 WAT 1
294 WAT_294 899 RESIDUE 1 WAT_810 WAT 1
295 WAT_295 902 RESIDUE 1 WAT_816 WAT 1
296 WAT_296 905 RESIDUE 1 WAT_820 WAT 1
297 WAT_297 908 RESIDUE 1 WAT_822 WAT 1
298 WAT_298 911 RESIDUE 1 WAT_824 WAT 1
299 WAT_299 914 RESIDUE 1 WAT_825 WAT 1
300 WAT_300 917 RESIDUE 1 WAT_826 WAT 1
301 WAT_301 920 RESIDUE 1 WAT_835 WAT 1
302 WAT_302 923 RESIDUE 1 WAT_837 WAT 1
303 WAT_303 926 RESIDUE 1 WAT_845 WAT 1
304 WAT_304 929 RESIDUE 1 WAT_848 WAT 1
305 WAT_305 932 RESIDUE 1 WAT_852 WAT 1
306 WAT_306 935 RESIDUE 1 WAT_853 WAT 1
307 WAT_307 938 RESIDUE 1 WAT_857 WAT 1
308 WAT_308 941 RESIDUE 1 WAT_860 WAT 1
309 WAT_309 944 RESIDUE 1 WAT_861 WAT 1
310 WAT_310 947 RESIDUE 1 WAT_865 WAT 1
311 WAT_311 950 RESIDUE 1 WAT_866 WAT 1
312 WAT_312 953 RESIDUE 1 WAT_872 WAT 1
313 WAT_313 956 RESIDUE 1 WAT_873 WAT 1
314 WAT_314 959 RESIDUE 1 WAT_877 WAT 1
315 WAT_315 962 RESIDUE 1 WAT_878 WAT 1
316 WAT_316 965 RESIDUE 1 WAT_880 WAT 1
317 WAT_317 968 RESIDUE 1 WAT_881 WAT 1
318 WAT_318 971 RESIDUE 1 WAT_882 WAT 1
319 WAT_319 974 RESIDUE 1 WAT_883 WAT 1
320 WAT_320 977 RESIDUE 1 WAT_884 WAT 1
321 WAT_321 980 RESIDUE 1 WAT_885 WAT 1
322 WAT_322 983 RESIDUE 1 WAT_886 WAT 1
323 WAT_323 986 RESIDUE 1 WAT_887 WAT 1
324 WAT_324 989 RESIDUE 1 WAT_891 WAT 1
325 WAT_325 992 RESIDUE 1 WAT_892 WAT 1
326 WAT_326 995 RESIDUE 1 WAT_896 WAT 1
327 WAT_327 998 RESIDUE 1 WAT_911 WAT 1
328 WAT_328 1001 RESIDUE 1 WAT_912 WAT 1
329 WAT_329 1004 RESIDUE 1 WAT_914 WAT 1
330 WAT_330 1007 RESIDUE 1 WAT_915 WAT 1
331 WAT_331 1010 RESIDUE 1 WAT_925 WAT 1
332 WAT_332 1013 RESIDUE 1 WAT_929 WAT 1
333 WAT_333 1016 RESIDUE 1 WAT_934 WAT 1
334 WAT_334 1019 RESIDUE 1 WAT_935 WAT 1
335 WAT_335 1022 RESIDUE 1 WAT_937 WAT 1
336 WAT_336 1025 RESIDUE 1 WAT_940 WAT 1
337 WAT_337 1028 RESIDUE 1 WAT_942 WAT 1
338 WAT_338 1031 RESIDUE 1 WAT_943 WAT 1
339 WAT_339 1034 RESIDUE 1 WAT_949 WAT 1
340 WAT_340 1037 RESIDUE 1 WAT_953 WAT 1
341 WAT_341 1040 RESIDUE 1 WAT_954 WAT 1
342 WAT_342 1043 RESIDUE 1 WAT_955 WAT 1
343 WAT_343 1046 RESIDUE 1 WAT_957 WAT 1
344 WAT_344 1049 RESIDUE 1 WAT_959 WAT 1
345 WAT_345 1052 RESIDUE 1 WAT_963 WAT 1
346 WAT_346 1055 RESIDUE 1 WAT_968 WAT 1
347 WAT_347 1058 RESIDUE 1 WAT_969 WAT 1
348 WAT_348 1061 RESIDUE 1 WAT_970 WAT 1
349 WAT_349 1064 RESIDUE 1 WAT_973 WAT 1
350 WAT_350 1067 RESIDUE 1 WAT_974 WAT 1
351 WAT_351 1070 RESIDUE 1 WAT_975 WAT 1
352 WAT_352 1073 RESIDUE 1 WAT_978 WAT 1
353 WAT_353 1076 RESIDUE 1 WAT_983 WAT 1
354 WAT_354 1079 RESIDUE 1 WAT_984 WAT 1
355 WAT_355 1082 RESIDUE 1 WAT_989 WAT 1
356 WAT_356 1085 RESIDUE 1 WAT_991 WAT 1
357 WAT_357 1088 RESIDUE 1 WAT_992 WAT 1
358 WAT_358 1091 RESIDUE 1 WAT_993 WAT 1
359 WAT_359 1094 RESIDUE 1 WAT_996 WAT 1
360 WAT_360 1097 RESIDUE 1 WAT_997 WAT 1
361 WAT_361 1100 RESIDUE 1 WAT_999 WAT 1
362 WAT_362 1103 RESIDUE 1 WAT_1001 WAT 1
363 WAT_363 1106 RESIDUE 1 WAT_1004 WAT 1
364 WAT_364 1109 RESIDUE 1 WAT_1006 WAT 1
365 WAT_365 1112 RESIDUE 1 WAT_1012 WAT 1
366 WAT_366 1115 RESIDUE 1 WAT_1014 WAT 1
367 WAT_367 1118 RESIDUE 1 WAT_1016 WAT 1
368 WAT_368 1121 RESIDUE 1 WAT_1018 WAT 1
369 WAT_369 1124 RESIDUE 1 WAT_1019 WAT 1
370 WAT_370 1127 RESIDUE 1 WAT_1020 WAT 1
371 WAT_371 1130 RESIDUE 1 WAT_1024 WAT 1
372 WAT_372 1133 RESIDUE 1 WAT_1025 WAT 1
373 WAT_373 1136 RESIDUE 1 WAT_1026 WAT 1
374 WAT_374 1139 RESIDUE 1 WAT_1028 WAT 1
375 WAT_375 1142 RESIDUE 1 WAT_1029 WAT 1
376 WAT_376 1145 RESIDUE 1 WAT_1030 WAT 1
377 WAT_377 1148 RESIDUE 1 WAT_1037 WAT 1
378 WAT_378 1151 RESIDUE 1 WAT_1038 WAT 1
379 WAT_379 1154 RESIDUE 1 WAT_1043 WAT 1
380 WAT_380 1157 RESIDUE 1 WAT_1044 WAT 1
381 WAT_381 1160 RESIDUE 1 WAT_1050 WAT 1
382 WAT_382 1163 RESIDUE 1 WAT_1052 WAT 1
383 WAT_383 1166 RESIDUE 1 WAT_1053 WAT 1
384 WAT_384 1169 RESIDUE 1 WAT_1060 WAT 1
385 WAT_385 1172 RESIDUE 1 WAT_1066 WAT 1
386 WAT_386 1175 RESIDUE 1 WAT_1072 WAT 1
387 WAT_387 1178 RESIDUE 1 WAT_1075 WAT 1
388 WAT_388 1181 RESIDUE 1 WAT_1082 WAT 1
389 WAT_389 1184 RESIDUE 1 WAT_1083 WAT 1
390 WAT_390 1187 RESIDUE 1 WAT_1089 WAT 1
391 WAT_391 1190 RESIDUE 1 WAT_1094 WAT 1
392 WAT_392 1193 RESIDUE 1 WAT_1097 WAT 1
393 WAT_393 1196 RESIDUE 1 WAT_1098 WAT 1
394 WAT_394 1199 RESIDUE 1 WAT_1099 WAT 1
395 WAT_395 1202 RESIDUE 1 WAT_1100 WAT 1
396 WAT_396 1205 RESIDUE 1 WAT_1101 WAT 1
397 WAT_397 1208 RESIDUE 1 WAT_1102 WAT 1
398 WAT_398 1211 RESIDUE 1 WAT_1107 WAT 1
399 WAT_399 1214 RESIDUE 1 WAT_1108 WAT 1
400 WAT_400 1217 RESIDUE 1 WAT_1111 WAT 1
401 WAT_401 1220 RESIDUE 1 WAT_1112 WAT 1
402 WAT_402 1223 RESIDUE 1 WAT_1115 WAT 1
403 WAT_403 1226 RESIDUE 1 WAT_1118 WAT 1
404 WAT_404 1229 RESIDUE 1 WAT_1124 WAT 1
405 WAT_405 1232 RESIDUE 1 WAT_1127 WAT 1
406 WAT_406 1235 RESIDUE 1 WAT_1128 WAT 1
407 WAT_407 1238 RESIDUE 1 WAT_1130 WAT 1
408 WAT_408 1241 RESIDUE 1 WAT_1131 WAT 1
409 WAT_409 1244 RESIDUE 1 WAT_1134 WAT 1
410 WAT_410 1247 RESIDUE 1 WAT_1144 WAT 1
411 WAT_411 1250 RESIDUE 1 WAT_1145 WAT 1
412 WAT_412 1253 RESIDUE 1 WAT_1146 WAT 1
413 WAT_413 1256 RESIDUE 1 WAT_1152 WAT 1
414 WAT_414 1259 RESIDUE 1 WAT_1153 WAT 1
415 WAT_415 1262 RESIDUE 1 WAT_1156 WAT 1
416 WAT_416 1265 RESIDUE 1 WAT_1158 WAT 1
417 WAT_417 1268 RESIDUE 1 WAT_1159 WAT 1
418 WAT_418 1271 RESIDUE 1 WAT_1160 WAT 1
419 WAT_419 1274 RESIDUE 1 WAT_1165 WAT 1
420 WAT_420 1277 RESIDUE 1 WAT_1170 WAT 1
421 WAT_421 1280 RESIDUE 1 WAT_1173 WAT 1
422 WAT_422 1283 RESIDUE 1 WAT_1175 WAT 1
423 WAT_423 1286 RESIDUE 1 WAT_1179 WAT 1
424 WAT_424 1289 RESIDUE 1 WAT_1184 WAT 1
425 WAT_425 1292 RESIDUE 1 WAT_1185 WAT 1
426 WAT_426 1295 RESIDUE 1 WAT_1186 WAT 1
427 WAT_427 1298 RESIDUE 1 WAT_1188 WAT 1
428 WAT_428 1301 RESIDUE 1 WAT_1190 WAT 1
429 WAT_429 1304 RESIDUE 1 WAT_1191 WAT 1
430 WAT_430 1307 RESIDUE 1 WAT_1194 WAT 1
431 WAT_431 1310 RESIDUE 1 WAT_1196 WAT 1
432 WAT_432 1313 RESIDUE 1 WAT_1200 WAT 1
433 WAT_433 1316 RESIDUE 1 WAT_1205 WAT 1
434 WAT_434 1319 RESIDUE 1 WAT_1207 WAT 1
435 WAT_435 1322 RESIDUE 1 WAT_1208 WAT 1
436 WAT_436 1325 RESIDUE 1 WAT_1213 WAT 1
437 WAT_437 1328 RESIDUE 1 WAT_1215 WAT 1
438 WAT_438 1331 RESIDUE 1 WAT_1217 WAT 1
439 WAT_439 1334 RESIDUE 1 WAT_1226 WAT 1
440 WAT_440 1337 RESIDUE 1 WAT_1227 WAT 1
441 WAT_441 1340 RESIDUE 1 WAT_1228 WAT 1
442 WAT_442 1343 RESIDUE 1 WAT_1231 WAT 1
443 WAT_443 1346 RESIDUE 1 WAT_1232 WAT 1
444 WAT_444 1349 RESIDUE 1 WAT_1236 WAT 1
445 WAT_445 1352 RESIDUE 1 WAT_1240 WAT 1
446 WAT_446 1355 RESIDUE 1 WAT_1241 WAT 1
447 WAT_447 1358 RESIDUE 1 WAT_1242 WAT 1
448 WAT_448 1361 RESIDUE 1 WAT_1243 WAT 1
449 WAT_449 1364 RESIDUE 1 WAT_1244 WAT 1
450 WAT_450 1367 RESIDUE 1 WAT_1253 WAT 1
451 WAT_451 1370 RESIDUE 1 WAT_1254 WAT 1
452 WAT_452 1373 RESIDUE 1 WAT_1258 WAT 1
453 WAT_453 1376 RESIDUE 1 WAT_1260 WAT 1
454 WAT_454 1379 RESIDUE 1 WAT_1261 WAT 1
455 WAT_455 1382 RESIDUE 1 WAT_1265 WAT 1
456 WAT_456 1385 RESIDUE 1 WAT_1266 WAT 1
457 WAT_457 1388 RESIDUE 1 WAT_1268 WAT 1
458 WAT_458 1391 RESIDUE 1 WAT_1269 WAT 1
459 WAT_459 1394 RESIDUE 1 WAT_1276 WAT 1
460 WAT_460 1397 RESIDUE 1 WAT_1277 WAT 1
461 WAT_461 1400 RESIDUE 1 WAT_1281 WAT 1
462 WAT_462 1403 RESIDUE 1 WAT_1288 WAT 1
463 WAT_463 1406 RESIDUE 1 WAT_1298 WAT 1
464 WAT_464 1409 RESIDUE 1 WAT_1304 WAT 1
465 WAT_465 1412 RESIDUE 1 WAT_1306 WAT 1
466 WAT_466 1415 RESIDUE 1 WAT_1309 WAT 1
467 WAT_467 1418 RESIDUE 1 WAT_1312 WAT 1
468 WAT_468 1421 RESIDUE 1 WAT_1313 WAT 1
469 WAT_469 1424 RESIDUE 1 WAT_1314 WAT 1
470 WAT_470 1427 RESIDUE 1 WAT_1315 WAT 1
471 WAT_471 1430 RESIDUE 1 WAT_1319 WAT 1
472 WAT_472 1433 RESIDUE 1 WAT_1321 WAT 1
473 WAT_473 1436 RESIDUE 1 WAT_1323 WAT 1
474 WAT_474 1439 RESIDUE 1 WAT_1328 WAT 1
475 WAT_475 1442 RESIDUE 1 WAT_1330 WAT 1
476 WAT_476 1445 RESIDUE 1 WAT_1332 WAT 1
477 WAT_477 1448 RESIDUE 1 WAT_1335 WAT 1
478 WAT_478 1451 RESIDUE 1 WAT_1343 WAT 1
479 WAT_479 1454 RESIDUE 1 WAT_1344 WAT 1
480 WAT_480 1457 RESIDUE 1 WAT_1346 WAT 1
481 WAT_481 1460 RESIDUE 1 WAT_1347 WAT 1
482 WAT_482 1463 RESIDUE 1 WAT_1348 WAT 1
483 WAT_483 1466 RESIDUE 1 WAT_1359 WAT 1
484 WAT_484 1469 RESIDUE 1 WAT_1366 WAT 1
485 WAT_485 1472 RESIDUE 1 WAT_1371 WAT 1
486 WAT_486 1475 RESIDUE 1 WAT_1374 WAT 1
487 WAT_487 1478 RESIDUE 1 WAT_1380 WAT 1
488 WAT_488 1481 RESIDUE 1 WAT_1385 WAT 1
489 WAT_489 1484 RESIDUE 1 WAT_1386 WAT 1
490 WAT_490 1487 RESIDUE 1 WAT_1387 WAT 1
491 WAT_491 1490 RESIDUE 1 WAT_1389 WAT 1
492 WAT_492 1493 RESIDUE 1 WAT_1391 WAT 1
493 WAT_493 1496 RESIDUE 1 WAT_1395 WAT 1
494 WAT_494 1499 RESIDUE 1 WAT_1400 WAT 1
495 WAT_495 1502 RESIDUE 1 WAT_1402 WAT 1
496 WAT_496 1505 RESIDUE 1 WAT_1403 WAT 1
497 WAT_497 1508 RESIDUE 1 WAT_1405 WAT 1
498 WAT_498 1511 RESIDUE 1 WAT_1407 WAT 1
499 WAT_499 1514 RESIDUE 1 WAT_1416 WAT 1
500 WAT_500 1517 RESIDUE 1 WAT_1418 WAT 1
501 WAT_501 1520 RESIDUE 1 WAT_1421 WAT 1
502 WAT_502 1523 RESIDUE 1 WAT_1423 WAT 1
503 WAT_503 1526 RESIDUE 1 WAT_1424 WAT 1
504 WAT_504 1529 RESIDUE 1 WAT_1425 WAT 1
505 WAT_505 1532 RESIDUE 1 WAT_1427 WAT 1
506 WAT_506 1535 RESIDUE 1 WAT_1428 WAT 1
507 WAT_507 1538 RESIDUE 1 WAT_1430 WAT 1
508 WAT_508 1541 RESIDUE 1 WAT_1433 WAT 1
509 WAT_509 1544 RESIDUE 1 WAT_1434 WAT 1
510 WAT_510 1547 RESIDUE 1 WAT_1439 WAT 1
511 WAT_511 1550 RESIDUE 1 WAT_1444 WAT 1
512 WAT_512 1553 RESIDUE 1 WAT_1446 WAT 1
513 WAT_513 1556 RESIDUE 1 WAT_1450 WAT 1
514 WAT_514 1559 RESIDUE 1 WAT_1451 WAT 1
515 WAT_515 1562 RESIDUE 1 WAT_1452 WAT 1
516 WAT_516 1565 RESIDUE 1 WAT_1453 WAT 1
517 WAT_517 1568 RESIDUE 1 WAT_1456 WAT 1
518 WAT_518 1571 RESIDUE 1 WAT_1458 WAT 1
519 WAT_519 1574 RESIDUE 1 WAT_1460 WAT 1
520 WAT_520 1577 RESIDUE 1 WAT_1461 WAT 1
521 WAT_521 1580 RESIDUE 1 WAT_1462 WAT 1
522 WAT_522 1583 RESIDUE 1 WAT_1463 WAT 1
523 WAT_523 1586 RESIDUE 1 WAT_1470 WAT 1
524 WAT_524 1589 RESIDUE 1 WAT_1473 WAT 1
525 WAT_525 1592 RESIDUE 1 WAT_1475 WAT 1
526 WAT_526 1595 RESIDUE 1 WAT_1476 WAT 1
527 WAT_527 1598 RESIDUE 1 WAT_1483 WAT 1
528 WAT_528 1601 RESIDUE 1 WAT_1484 WAT 1
529 WAT_529 1604 RESIDUE 1 WAT_1485 WAT 1
530 WAT_530 1607 RESIDUE 1 WAT_1491 WAT 1
531 WAT_531 1610 RESIDUE 1 WAT_1492 WAT 1
532 WAT_532 1613 RESIDUE 1 WAT_1495 WAT 1
533 WAT_533 1616 RESIDUE 1 WAT_1502 WAT 1
534 WAT_534 1619 RESIDUE 1 WAT_1507 WAT 1
535 WAT_535 1622 RESIDUE 1 WAT_1514 WAT 1
536 WAT_536 1625 RESIDUE 1 WAT_1515 WAT 1
537 WAT_537 1628 RESIDUE 1 WAT_1522 WAT 1
538 WAT_538 1631 RESIDUE 1 WAT_1529 WAT 1
539 WAT_539 1634 RESIDUE 1 WAT_1530 WAT 1
540 WAT_540 1637 RESIDUE 1 WAT_1531 WAT 1
541 WAT_541 1640 RESIDUE 1 WAT_1537 WAT 1
542 WAT_542 1643 RESIDUE 1 WAT_1538 WAT 1
543 WAT_543 1646 RESIDUE 1 WAT_1539 WAT 1
544 WAT_544 1649 RESIDUE 1 WAT_1543 WAT 1
545 WAT_545 1652 RESIDUE 1 WAT_1544 WAT 1
546 WAT_546 1655 RESIDUE 1 WAT_1545 WAT 1
547 WAT_547 1658 RESIDUE 1 WAT_1551 WAT 1
548 WAT_548 1661 RESIDUE 1 WAT_1556 WAT 1
549 WAT_549 1664 RESIDUE 1 WAT_1559 WAT 1
550 WAT_550 1667 RESIDUE 1 WAT_1560 WAT 1
551 WAT_551 1670 RESIDUE 1 WAT_1562 WAT 1
552 WAT_552 1673 RESIDUE 1 WAT_1563 WAT 1
553 WAT_553 1676 RESIDUE 1 WAT_1564 WAT 1
554 WAT_554 1679 RESIDUE 1 WAT_1576 WAT 1
555 WAT_555 1682 RESIDUE 1 WAT_1578 WAT 1
556 WAT_556 1685 RESIDUE 1 WAT_1587 WAT 1
557 WAT_557 1688 RESIDUE 1 WAT_1590 WAT 1
558 WAT_558 1691 RESIDUE 1 WAT_1592 WAT 1
559 WAT_559 1694 RESIDUE 1 WAT_1596 WAT 1
560 WAT_560 1697 RESIDUE 1 WAT_1602 WAT 1
561 WAT_561 1700 RESIDUE 1 WAT_1605 WAT 1
562 WAT_562 1703 RESIDUE 1 WAT_1607 WAT 1
563 WAT_563 1706 RESIDUE 1 WAT_1611 WAT 1
564 WAT_564 1709 RESIDUE 1 WAT_1616 WAT 1
565 WAT_565 1712 RESIDUE 1 WAT_1618 WAT 1
566 WAT_566 1715 RESIDUE 1 WAT_1619 WAT 1
567 WAT_567 1718 RESIDUE 1 WAT_1620 WAT 1
568 WAT_568 1721 RESIDUE 1 WAT_1623 WAT 1
569 WAT_569 1724 RESIDUE 1 WAT_1624 WAT 1
570 WAT_570 1727 RESIDUE 1 WAT_1632 WAT 1
571 WAT_571 1730 RESIDUE 1 WAT_1634 WAT 1
572 WAT_572 1733 RESIDUE 1 WAT_1636 WAT 1
573 WAT_573 1736 RESIDUE 1 WAT_1637 WAT 1
574 WAT_574 1739 RESIDUE 1 WAT_1639 WAT 1
575 WAT_575 1742 RESIDUE 1 WAT_1640 WAT 1
576 WAT_576 1745 RESIDUE 1 WAT_1643 WAT 1
577 WAT_577 1748 RESIDUE 1 WAT_1646 WAT 1
578 WAT_578 1751 RESIDUE 1 WAT_1648 WAT 1
579 WAT_579 1754 RESIDUE 1 WAT_1649 WAT 1
580 WAT_580 1757 RESIDUE 1 WAT_1650 WAT 1
581 WAT_581 1760 RESIDUE 1 WAT_1660 WAT 1
582 WAT_582 1763 RESIDUE 1 WAT_1661 WAT 1
583 WAT_583 1766 RESIDUE 1 WAT_1663 WAT 1
584 WAT_584 1769 RESIDUE 1 WAT_1668 WAT 1
585 WAT_585 1772 RESIDUE 1 WAT_1669 WAT 1
586 WAT_586 1775 RESIDUE 1 WAT_1672 WAT 1
587 WAT_587 1778 RESIDUE 1 WAT_1674 WAT 1
588 WAT_588 1781 RESIDUE 1 WAT_1676 WAT 1
589 WAT_589 1784 RESIDUE 1 WAT_1683 WAT 1
590 WAT_590 1787 RESIDUE 1 WAT_1686 WAT 1
591 WAT_591 1790 RESIDUE 1 WAT_1689 WAT 1
592 WAT_592 1793 RESIDUE 1 WAT_1690 WAT 1
593 WAT_593 1796 RESIDUE 1 WAT_1692 WAT 1
594 WAT_594 1799 RESIDUE 1 WAT_1697 WAT 1
595 WAT_595 1802 RESIDUE 1 WAT_1699 WAT 1
596 WAT_596 1805 RESIDUE 1 WAT_1700 WAT 1
597 WAT_597 1808 RESIDUE 1 WAT_1701 WAT 1
598 WAT_598 1811 RESIDUE 1 WAT_1704 WAT 1
599 WAT_599 1814 RESIDUE 1 WAT_1707 WAT 1
600 WAT_600 1817 RESIDUE 1 WAT_1708 WAT 1
601 WAT_601 1820 RESIDUE 1 WAT_1709 WAT 1
602 WAT_602 1823 RESIDUE 1 WAT_1718 WAT 1
603 WAT_603 1826 RESIDUE 1 WAT_1724 WAT 1
604 WAT_604 1829 RESIDUE 1 WAT_1725 WAT 1
