@<TRIPOS>MOLECULE
NIL
252 276 2 0 0
POLYMER
CHARGES


@<TRIPOS>ATOM
1 C_8510 163.285 114.769 -4.44205 C.3 1 NIL_1    0.000
2 C_8509 163.334 116.079 -3.617 C.3 1 NIL_1    0.000
3 C_8511 164.696 114.176 -4.296 C.3 1 NIL_1    0.000
4 N 164.749 116.391 -3.427 N.am 1 NIL_1    0.000
5 C_8514 162.539 116.085 -2.322 C.2 1 NIL_1    0.000
6 C_8512 165.566 115.434 -4.178 C.3 1 NIL_1    0.000
7 NH 164.729 113.355 -3.079 N.am 1 NIL_1    0.000
8 C_8513 165.232 117.249 -2.509 C.2 1 NIL_1    0.000
9 N 163.024 116.830 -1.285 N.am 1 NIL_1    0.000
10 O 161.499 115.460 -2.222 O.2 1 NIL_1    0.000
11 C_8570 164.610 112.009 -3.134 C.2 1 NIL_1    0.000
12 C_8501 164.318 117.602 -1.330 C.3 1 NIL_1    0.000
13 O 166.377 117.656 -2.598 O.2 1 NIL_1    0.000
14 C_8517 162.214 116.995 -0.044 C.3 1 NIL_1    0.000
15 O 165.235 111.365 -3.955 O.2 1 NIL_1    0.000
16 C_8572 163.645 111.370 -2.294 C.2 1 NIL_1    0.000
17 C_8500 165.185 117.455 -0.037 C.3 1 NIL_1    0.000
18 C_8502 164.018 119.115 -1.367 C.3 1 NIL_1    0.000
19 C_8518 160.806 117.576 -0.078 C.2 1 NIL_1    0.000
20 C_11391 163.341 110.081 -2.494 C.2 1 NIL_1    0.000
21 C_11399 162.947 112.055 -1.372 C.2 1 NIL_1    0.000
22 C_8499 165.317 118.888 0.527 C.3 1 NIL_1    0.000
23 N 164.166 119.602 0.010 N.am 1 NIL_1    0.000
24 C_8559 159.972 117.293 0.929 C.2 1 NIL_1    0.000
25 C_8563 160.373 118.386 -1.055 C.2 1 NIL_1    0.000
26 C_11393 162.344 109.509 -1.823 C.2 1 NIL_1    0.000
27 C_11397 161.920 111.499 -0.706 C.2 1 NIL_1    0.000
28 C_8504 166.608 119.609 0.143 C.2 1 NIL_1    0.000
29 C_8503 164.064 120.902 0.302 C.2 1 NIL_1    0.000
30 C_8560 158.738 117.795 0.964 C.2 1 NIL_1    0.000
31 C_8562 159.139 118.893 -1.023 C.2 1 NIL_1    0.000
32 C_11395 161.626 110.215 -0.953 C.2 1 NIL_1    0.000
33 C_8699 161.188 112.234 0.141 C.2 1 NIL_1    0.000
34 N 166.513 120.913 -0.290 N.am 1 NIL_1    0.000
35 O 167.658 119.001 0.198 O.2 1 NIL_1    0.000
36 C_8492 165.288 121.759 -0.042 C.3 1 NIL_1    0.000
37 O 163.050 121.310 0.827 O.2 1 NIL_1    0.000
38 C_8561 158.323 118.599 -0.013 C.2 1 NIL_1    0.000
39 N 161.403 113.424 0.578 N.2 1 NIL_1    0.000
40 C_8698 160.019 111.947 0.688 C.2 1 NIL_1    0.000
41 C_8519 167.601 121.617 -1.026 C.3 1 NIL_1    0.000
42 C_8491 164.813 122.674 -1.207 C.3 1 NIL_1    0.000
43 C_8493 165.531 122.783 1.095 C.3 1 NIL_1    0.000
44 N 160.461 113.846 1.342 N.2 1 NIL_1    0.000
45 N 159.440 112.946 1.384 N.3 1 NIL_1    0.000
46 C_8520 169.022 121.085 -1.013 C.2 1 NIL_1    0.000
47 C_8490 164.131 123.884 -0.521 C.3 1 NIL_1    0.000
48 N 164.631 123.920 0.856 N.am 1 NIL_1    0.000
49 C_8601 158.162 113.609 1.056 C.3 1 NIL_1    0.000
50 C_8554 169.914 121.466 -0.096 C.2 1 NIL_1    0.000
51 C_8558 169.409 120.193 -1.918 C.2 1 NIL_1    0.000
52 C_8494 162.605 123.905 -0.530 C.2 1 NIL_1    0.000
53 C_8600 156.914 112.703 0.989 C.3 1 NIL_1    0.000
54 C_8602 158.201 114.255 -0.341 C.3 1 NIL_1    0.000
55 C_8555 171.167 120.959 -0.080 C.2 1 NIL_1    0.000
56 C_8557 170.646 119.711 -1.873 C.2 1 NIL_1    0.000
57 O 161.957 123.317 -1.376 O.2 1 NIL_1    0.000
58 C_8599 156.058 113.301 -0.161 C.3 1 NIL_1    0.000
59 N 156.802 114.429 -0.706 N.am 1 NIL_1    0.000
60 N 171.510 120.077 -0.982 N.2 1 NIL_1    0.000
61 C_11353 172.117 121.293 0.826 C.2 1 NIL_1    0.000
62 C_8604 154.613 113.598 0.189 C.2 1 NIL_1    0.000
63 C_8603 156.293 115.586 -1.172 C.2 1 NIL_1    0.000
64 N 171.786 122.166 1.744 N.2 1 NIL_1    0.000
65 C_11381 173.368 120.777 0.829 C.2 1 NIL_1    0.000
66 N 154.073 114.797 -0.186 N.am 1 NIL_1    0.000
67 O 153.958 112.750 0.767 O.2 1 NIL_1    0.000
68 C_8591 154.815 115.898 -0.898 C.3 1 NIL_1    0.000
69 O 157.030 116.365 -1.747 O.2 1 NIL_1    0.000
70 C_11375 172.662 122.509 2.638 C.2 1 NIL_1    0.000
71 C_11379 174.258 121.135 1.749 C.2 1 NIL_1    0.000
72 C_8607 152.629 115.064 0.057 C.3 1 NIL_1    0.000
73 C_8590 154.173 116.356 -2.243 C.3 1 NIL_1    0.000
74 C_8592 154.812 117.212 -0.066 C.3 1 NIL_1    0.000
75 C_11377 173.898 122.014 2.673 C.2 1 NIL_1    0.000
76 C_8608 152.131 114.923 1.486 C.2 1 NIL_1    0.000
77 C_8589 154.524 117.857 -2.354 C.3 1 NIL_1    0.000
78 N 154.688 118.345 -0.990 N.am 1 NIL_1    0.000
79 C_8685 152.676 115.629 2.479 C.2 1 NIL_1    0.000
80 C_8689 151.132 114.091 1.782 C.2 1 NIL_1    0.000
81 C_8594 153.578 118.712 -3.176 C.2 1 NIL_1    0.000
82 C_8593 154.667 119.651 -0.640 C.2 1 NIL_1    0.000
83 N 152.294 115.570 3.711 N.2 1 NIL_1    0.000
84 C_8688 150.690 113.974 3.046 C.2 1 NIL_1    0.000
85 N 153.481 120.031 -2.828 N.am 1 NIL_1    0.000
86 O 152.939 118.226 -4.090 O.2 1 NIL_1    0.000
87 C_8582 154.350 120.654 -1.763 C.3 1 NIL_1    0.000
88 O 154.856 119.981 0.517 O.2 1 NIL_1    0.000
89 C_8687 151.320 114.752 3.950 C.2 1 NIL_1    0.000
90 C_11355 149.687 113.137 3.406 C.2 1 NIL_1    0.000
91 C_8609 152.565 120.937 -3.571 C.3 1 NIL_1    0.000
92 C_8581 155.691 121.132 -2.372 C.3 1 NIL_1    0.000
93 C_8583 153.845 121.984 -1.114 C.3 1 NIL_1    0.000
94 N 149.361 113.134 4.674 N.2 1 NIL_1    0.000
95 C_11365 149.022 112.321 2.559 C.2 1 NIL_1    0.000
96 C_8610 151.228 121.159 -2.879 C.2 1 NIL_1    0.000
97 C_8580 156.202 122.196 -1.384 C.3 1 NIL_1    0.000
98 N 155.009 122.847 -0.865 N.am 1 NIL_1    0.000
99 C_11359 148.414 112.353 5.087 C.2 1 NIL_1    0.000
100 C_11363 148.052 111.522 2.992 C.2 1 NIL_1    0.000
101 C_8680 150.802 122.398 -2.599 C.2 1 NIL_1    0.000
102 C_8684 150.452 120.124 -2.532 C.2 1 NIL_1    0.000
103 C_8584 157.244 123.139 -1.945 C.2 1 NIL_1    0.000
104 C_11361 147.741 111.537 4.281 C.2 1 NIL_1    0.000
105 C_8681 149.643 122.597 -1.969 C.2 1 NIL_1    0.000
106 C_8683 149.289 120.320 -1.908 C.2 1 NIL_1    0.000
107 O 158.122 122.720 -2.675 O.2 1 NIL_1    0.000
108 C_8682 148.886 121.556 -1.622 C.2 1 NIL_1    0.000
109 H_8682 147.941 121.715 -1.107 H 1 NIL_1    0.000
110 H_8683 148.673 119.469 -1.630 H 1 NIL_1    0.000
111 H_8681 149.316 123.607 -1.737 H 1 NIL_1    0.000
112 H_11361 146.952 110.897 4.671 H 1 NIL_1    0.000
113 H_8684 150.765 119.108 -2.755 H 1 NIL_1    0.000
114 H_8680 151.406 123.259 -2.874 H 1 NIL_1    0.000
115 H_11363 147.523 110.867 2.306 H 1 NIL_1    0.000
116 H_11359 148.257 112.459 6.155 H 1 NIL_1    0.000
117 H_8580 156.681 121.695 -0.540 H 1 NIL_1    0.000
118 H_11365 149.246 112.274 1.499 H 1 NIL_1    0.000
119 H_85831 153.212 122.557 -1.783 H 1 NIL_1    0.000
120 H_85832 153.295 121.804 -0.188 H 1 NIL_1    0.000
121 H_85811 155.515 121.596 -3.347 H 1 NIL_1    0.000
122 H_85812 156.411 120.320 -2.501 H 1 NIL_1    0.000
123 H_86091 152.371 120.518 -4.561 H 1 NIL_1    0.000
124 H_86092 153.072 121.888 -3.751 H 1 NIL_1    0.000
125 H_8687 151.118 114.812 5.014 H 1 NIL_1    0.000
126 H_8689 150.704 113.523 0.965 H 1 NIL_1    0.000
127 H_8685 153.495 116.330 2.391 H 1 NIL_1    0.000
128 H_8589 155.493 117.960 -2.847 H 1 NIL_1    0.000
129 H_11377 174.599 122.325 3.444 H 1 NIL_1    0.000
130 H_85921 153.955 117.255 0.604 H 1 NIL_1    0.000
131 H_85922 155.723 117.306 0.532 H 1 NIL_1    0.000
132 H_85901 153.089 116.240 -2.243 H 1 NIL_1    0.000
133 H_85902 154.561 115.792 -3.096 H 1 NIL_1    0.000
134 H_86071 152.071 114.377 -0.586 H 1 NIL_1    0.000
135 H_86072 152.370 116.072 -0.267 H 1 NIL_1    0.000
136 H_11379 175.261 120.714 1.746 H 1 NIL_1    0.000
137 H_11375 172.255 123.235 3.333 H 1 NIL_1    0.000
138 H_11381 173.694 120.051 0.088 H 1 NIL_1    0.000
139 H_8599 156.002 112.557 -0.961 H 1 NIL_1    0.000
140 H_8557 171.057 118.969 -2.547 H 1 NIL_1    0.000
141 H_86021 158.722 115.213 -0.307 H 1 NIL_1    0.000
142 H_86022 158.681 113.598 -1.072 H 1 NIL_1    0.000
143 H_86001 156.387 112.709 1.947 H 1 NIL_1    0.000
144 H_86002 157.184 111.671 0.750 H 1 NIL_1    0.000
145 H_8558 168.715 119.842 -2.677 H 1 NIL_1    0.000
146 H_8554 169.593 122.195 0.645 H 1 NIL_1    0.000
147 H_8601 157.966 114.394 1.792 H 1 NIL_1    0.000
148 H_8490 164.448 124.799 -1.028 H 1 NIL_1    0.000
149 H_84931 165.333 122.332 2.071 H 1 NIL_1    0.000
150 H_84932 166.557 123.156 1.075 H 1 NIL_1    0.000
151 H_84911 164.157 122.148 -1.905 H 1 NIL_1    0.000
152 H_84912 165.646 123.065 -1.792 H 1 NIL_1    0.000
153 H_85191 167.635 122.655 -0.691 H 1 NIL_1    0.000
154 H_85192 167.288 121.639 -2.073 H 1 NIL_1    0.000
155 H_8698 159.434 111.046 0.547 H 1 NIL_1    0.000
156 H_8561 157.322 119.014 0.015 H 1 NIL_1    0.000
157 H_11395 160.808 109.717 -0.440 H 1 NIL_1    0.000
158 H_8562 158.798 119.550 -1.821 H 1 NIL_1    0.000
159 H_8560 158.072 117.553 1.789 H 1 NIL_1    0.000
160 H_11393 162.099 108.466 -2.009 H 1 NIL_1    0.000
161 H_8563 161.018 118.643 -1.889 H 1 NIL_1    0.000
162 H_8559 160.301 116.643 1.737 H 1 NIL_1    0.000
163 H_8499 165.269 118.870 1.619 H 1 NIL_1    0.000
164 H_11399 163.169 113.105 -1.200 H 1 NIL_1    0.000
165 H_11391 163.873 109.484 -3.229 H 1 NIL_1    0.000
166 H_85021 164.748 119.630 -2.000 H 1 NIL_1    0.000
167 H_85022 163.023 119.332 -1.754 H 1 NIL_1    0.000
168 H_85001 166.159 116.994 -0.215 H 1 NIL_1    0.000
169 H_85002 164.706 116.810 0.701 H 1 NIL_1    0.000
170 H_85171 162.751 117.608 0.677 H 1 NIL_1    0.000
171 H_85172 162.153 116.003 0.405 H 1 NIL_1    0.000
172 H_85121 166.508 115.216 -3.666 H 1 NIL_1    0.000
173 H_85122 165.767 115.843 -5.172 H 1 NIL_1    0.000
174 H_8511 164.974 113.580 -5.170 H 1 NIL_1    0.000
175 H_8509 162.899 116.882 -4.220 H 1 NIL_1    0.000
176 H_85101 163.108 115.012 -5.493 H 1 NIL_1    0.000
177 H_85102 162.505 114.076 -4.120 H 1 NIL_1    0.000
178 HH 164.300 113.810 -2.288 H 1 NIL_1    0.000
179 C_8614 156.177 125.010 -0.604 C.3 2 NIL_2    0.000
180 C_8613 156.862 125.231 0.765 C.3 2 NIL_2    0.000
181 C_8615 155.658 126.438 -0.968 C.3 2 NIL_2    0.000
182 N 157.158 124.454 -1.601 N.am 2 NIL_2    0.000
183 C_8625 154.956 124.106 -0.375 C.2 2 NIL_2    0.000
184 C_8612 156.316 126.553 1.329 C.3 2 NIL_2    0.000
185 N 155.882 127.348 0.169 N.am 2 NIL_2    0.000
186 C_8633 158.171 125.412 -2.108 C.3 2 NIL_2    0.000
187 O 153.952 124.497 0.191 O.2 2 NIL_2    0.000
188 C_8616 157.337 127.171 2.280 C.2 2 NIL_2    0.000
189 C_8635 155.520 128.661 0.197 C.2 2 NIL_2    0.000
190 C_8634 158.051 125.839 -3.560 C.2 2 NIL_2    0.000
191 O 157.316 126.895 3.464 O.2 2 NIL_2    0.000
192 NH 158.243 128.038 1.757 N.am 2 NIL_2    0.000
193 CH3 155.019 129.270 -1.099 C.3 2 NIL_2    0.000
194 O 155.582 129.329 1.211 O.2 2 NIL_2    0.000
195 C_8675 159.117 126.362 -4.176 C.2 2 NIL_2    0.000
196 C_8679 156.906 125.719 -4.246 C.2 2 NIL_2    0.000
197 C_8577 159.333 128.674 2.518 C.3 2 NIL_2    0.000
198 C_8676 159.047 126.749 -5.451 C.2 2 NIL_2    0.000
199 C_8678 156.833 126.104 -5.520 C.2 2 NIL_2    0.000
200 C_8546 160.297 127.654 3.102 C.2 2 NIL_2    0.000
201 C_8677 157.905 126.617 -6.125 C.2 2 NIL_2    0.000
202 N 161.286 127.137 2.321 N.am 2 NIL_2    0.000
203 O 160.139 127.256 4.240 O.2 2 NIL_2    0.000
204 C_8522 161.926 127.728 1.124 C.3 2 NIL_2    0.000
205 C_8525 162.067 125.955 2.710 C.3 2 NIL_2    0.000
206 C_8523 163.115 126.800 0.783 C.3 2 NIL_2    0.000
207 C_8526 161.048 127.902 -0.103 C.2 2 NIL_2    0.000
208 C_8524 162.806 125.436 1.447 C.3 2 NIL_2    0.000
209 O 160.105 127.189 -0.368 O.2 2 NIL_2    0.000
210 NH2 161.421 128.888 -0.940 N.am 2 NIL_2    0.000
211 N 162.005 124.568 0.505 N.am 2 NIL_2    0.000
212 C_8535 164.112 124.721 1.817 C.2 2 NIL_2    0.000
213 C_8543 160.565 124.339 0.799 C.3 2 NIL_2    0.000
214 O 164.621 124.784 2.920 O.2 2 NIL_2    0.000
215 C_8544 160.189 123.090 1.586 C.2 2 NIL_2    0.000
216 C_8547 159.023 122.481 1.342 C.2 2 NIL_2    0.000
217 C_8551 160.983 122.581 2.538 C.2 2 NIL_2    0.000
218 C_8548 158.658 121.393 2.023 C.2 2 NIL_2    0.000
219 C_8550 160.624 121.492 3.220 C.2 2 NIL_2    0.000
220 C_8549 159.461 120.897 2.963 C.2 2 NIL_2    0.000
221 H_8549 159.164 120.012 3.522 H 2 NIL_2    0.000
222 H_8550 161.281 121.092 3.988 H 2 NIL_2    0.000
223 H_8548 157.705 120.914 1.813 H 2 NIL_2    0.000
224 H_8551 161.937 123.044 2.766 H 2 NIL_2    0.000
225 H_8547 158.357 122.871 0.582 H 2 NIL_2    0.000
226 H_85431 160.047 124.296 -0.160 H 2 NIL_2    0.000
227 H_85432 160.132 125.198 1.308 H 2 NIL_2    0.000
228 H_85231 163.283 126.711 -0.292 H 2 NIL_2    0.000
229 H_85232 164.020 127.226 1.222 H 2 NIL_2    0.000
230 H_85251 161.430 125.195 3.166 H 2 NIL_2    0.000
231 H_85252 162.786 126.295 3.461 H 2 NIL_2    0.000
232 H_8522 162.307 128.719 1.390 H 2 NIL_2    0.000
233 H_8677 157.848 126.926 -7.165 H 2 NIL_2    0.000
234 H_8678 155.898 126.001 -6.065 H 2 NIL_2    0.000
235 H_8676 159.922 127.172 -5.938 H 2 NIL_2    0.000
236 H_85771 158.907 129.246 3.348 H 2 NIL_2    0.000
237 H_85772 159.886 129.361 1.872 H 2 NIL_2    0.000
238 H_8679 156.017 125.309 -3.775 H 2 NIL_2    0.000
239 H_8675 160.055 126.478 -3.637 H 2 NIL_2    0.000
240 HH31 155.777 129.183 -1.880 H 2 NIL_2    0.000
241 HH32 154.791 130.329 -0.958 H 2 NIL_2    0.000
242 HH33 154.111 128.761 -1.431 H 2 NIL_2    0.000
243 H_86331 159.157 124.959 -1.969 H 2 NIL_2    0.000
244 H_86332 158.163 126.310 -1.491 H 2 NIL_2    0.000
245 H_8612 155.423 126.338 1.921 H 2 NIL_2    0.000
246 H_86151 156.151 126.850 -1.848 H 2 NIL_2    0.000
247 H_86152 154.589 126.413 -1.194 H 2 NIL_2    0.000
248 H_86131 157.939 125.330 0.628 H 2 NIL_2    0.000
249 H_86132 156.693 124.403 1.456 H 2 NIL_2    0.000
250 HH21 160.899 129.062 -1.787 H 2 NIL_2    0.000
251 HH22 162.231 129.451 -0.727 H 2 NIL_2    0.000
252 HH 158.208 128.234 0.768 H 2 NIL_2    0.000
@<TRIPOS>BOND
1 1 2 1 
2 2 4 1 
3 3 1 1 
4 5 9 1 
5 5 2 1 
6 5 10 2 
7 6 3 1 
8 6 4 1 
9 7 3 1 
10 7 11 1 
11 8 12 1 
12 8 13 2 
13 8 4 1 
14 9 12 1 
15 9 14 1 
16 12 17 1 
17 15 11 2 
18 16 11 1 
19 16 20 2 
20 16 21 1 
21 17 22 1 
22 18 12 1 
23 18 23 1 
24 19 14 1 
25 19 24 2 
26 19 25 1 
27 21 27 2 
28 22 23 1 
29 22 28 1 
30 23 29 1 
31 25 31 2 
32 26 20 1 
33 27 32 1 
34 28 34 1 
35 28 35 2 
36 29 36 1 
37 30 24 1 
38 31 38 1 
39 32 26 2 
40 33 39 1 
41 33 40 2 
42 33 27 1 
43 34 36 1 
44 34 41 1 
45 36 42 1 
46 37 29 2 
47 38 30 2 
48 39 44 2 
49 42 47 1 
50 43 36 1 
51 43 48 1 
52 45 49 1 
53 45 44 1 
54 45 40 1 
55 46 41 1 
56 46 50 2 
57 46 51 1 
58 47 48 1 
59 52 47 1 
60 52 211 1 
61 53 58 1 
62 53 49 1 
63 54 49 1 
64 55 50 1 
65 55 61 1 
66 56 60 1 
67 56 51 2 
68 57 52 2 
69 58 59 1 
70 58 62 1 
71 59 54 1 
72 59 63 1 
73 60 55 2 
74 62 66 1 
75 62 67 2 
76 63 68 1 
77 64 61 2 
78 65 71 2 
79 65 61 1 
80 66 68 1 
81 66 72 1 
82 68 73 1 
83 69 63 2 
84 70 64 1 
85 71 75 1 
86 73 77 1 
87 74 68 1 
88 74 78 1 
89 75 70 2 
90 76 72 1 
91 76 79 2 
92 76 80 1 
93 77 78 1 
94 77 81 1 
95 78 82 1 
96 80 84 2 
97 81 85 1 
98 83 79 1 
99 84 89 1 
100 84 90 1 
101 85 91 1 
102 86 81 2 
103 87 92 1 
104 87 85 1 
105 87 82 1 
106 88 82 2 
107 89 83 2 
108 92 97 1 
109 93 87 1 
110 93 98 1 
111 94 90 2 
112 95 100 2 
113 95 90 1 
114 96 91 1 
115 96 101 2 
116 96 102 1 
117 97 98 1 
118 98 183 1 
119 99 94 1 
120 100 104 1 
121 102 106 2 
122 103 97 1 
123 103 107 2 
124 103 182 1 
125 104 99 2 
126 105 101 1 
127 106 108 1 
128 108 105 2 
129 109 108 1 
130 110 106 1 
131 111 105 1 
132 112 104 1 
133 113 102 1 
134 114 101 1 
135 115 100 1 
136 116 99 1 
137 117 97 1 
138 118 95 1 
139 119 93 1 
140 120 93 1 
141 121 92 1 
142 122 92 1 
143 123 91 1 
144 124 91 1 
145 125 89 1 
146 126 80 1 
147 127 79 1 
148 128 77 1 
149 129 75 1 
150 130 74 1 
151 131 74 1 
152 132 73 1 
153 133 73 1 
154 134 72 1 
155 135 72 1 
156 136 71 1 
157 137 70 1 
158 138 65 1 
159 139 58 1 
160 140 56 1 
161 141 54 1 
162 142 54 1 
163 143 53 1 
164 144 53 1 
165 145 51 1 
166 146 50 1 
167 147 49 1 
168 148 47 1 
169 149 43 1 
170 150 43 1 
171 151 42 1 
172 152 42 1 
173 153 41 1 
174 154 41 1 
175 155 40 1 
176 156 38 1 
177 157 32 1 
178 158 31 1 
179 159 30 1 
180 160 26 1 
181 161 25 1 
182 162 24 1 
183 163 22 1 
184 164 21 1 
185 165 20 1 
186 166 18 1 
187 167 18 1 
188 168 17 1 
189 169 17 1 
190 170 14 1 
191 171 14 1 
192 172 6 1 
193 173 6 1 
194 174 3 1 
195 175 2 1 
196 176 1 1 
197 177 1 1 
198 178 7 1 
199 179 180 1 
200 180 184 1 
201 181 179 1 
202 181 185 1 
203 182 179 1 
204 182 186 1 
205 183 179 1 
206 184 185 1 
207 185 189 1 
208 187 183 2 
209 188 184 1 
210 189 193 1 
211 189 194 2 
212 190 186 1 
213 191 188 2 
214 192 197 1 
215 192 188 1 
216 195 190 2 
217 196 199 2 
218 196 190 1 
219 198 195 1 
220 199 201 1 
221 200 203 2 
222 200 197 1 
223 201 198 2 
224 201 233 1 
225 202 200 1 
226 204 202 1 
227 204 207 1 
228 204 232 1 
229 205 208 1 
230 205 202 1 
231 205 230 1 
232 205 231 1 
233 206 204 1 
234 206 228 1 
235 206 229 1 
236 208 206 1 
237 208 211 1 
238 208 212 1 
239 209 207 2 
240 210 207 1 
241 212 48 1 
242 213 211 1 
243 213 226 1 
244 213 227 1 
245 214 212 2 
246 215 213 1 
247 216 215 2 
248 216 225 1 
249 217 219 2 
250 217 215 1 
251 217 224 1 
252 218 216 1 
253 218 223 1 
254 219 220 1 
255 219 222 1 
256 220 218 2 
257 220 221 1 
258 234 199 1 
259 235 198 1 
260 236 197 1 
261 237 197 1 
262 238 196 1 
263 239 195 1 
264 240 193 1 
265 241 193 1 
266 242 193 1 
267 243 186 1 
268 244 186 1 
269 245 184 1 
270 246 181 1 
271 247 181 1 
272 248 180 1 
273 249 180 1 
274 250 210 1 
275 251 210 1 
276 252 192 1 
@<TRIPOS>SUBSTRUCTURE
1 NIL_1 1 RESIDUE 1 A NIL 1
2 NIL_2 179 RESIDUE 1 A NIL 1
